Version 4
SHEET 1 5472 24476
WIRE 304 -16 256 -16
WIRE 480 -16 304 -16
WIRE 528 -16 480 -16
WIRE 704 -16 608 -16
WIRE -128 0 -160 0
WIRE 208 0 -48 0
WIRE 256 0 256 -16
WIRE 304 0 304 -16
WIRE 288 144 288 128
WIRE 288 144 192 144
WIRE 288 192 288 144
WIRE -128 304 -128 0
WIRE 48 304 -128 304
WIRE 208 304 128 304
WIRE 288 304 288 272
FLAG 704 64 0
FLAG -240 0 0
FLAG 48 144 0
FLAG 480 64 0
FLAG 448 304 0
SYMBOL res 272 32 R0
SYMATTR InstName R62
SYMATTR Value 240
SYMBOL nmos4editable 208 48 R270
WINDOW 3 56 72 Invisible 0
SYMATTR Value DN2540
SYMATTR InstName U10
SYMATTR SpiceModel DN2540
SYMBOL res -144 16 R270
WINDOW 0 32 56 VTop 0
WINDOW 3 0 56 VBottom 0
SYMATTR InstName R68
SYMATTR Value 120k
SYMBOL voltage -144 0 R90
WINDOW 123 0 0 Left 0
WINDOW 39 0 0 Left 0
SYMATTR InstName V1
SYMATTR Value 375
SYMBOL voltage 704 -32 R0
WINDOW 123 0 0 Left 0
WINDOW 39 0 0 Left 0
SYMATTR InstName V3
SYMATTR Value 4
SYMBOL res 624 -32 R90
WINDOW 0 0 56 VBottom 0
WINDOW 3 32 56 VTop 0
SYMATTR InstName R2
SYMATTR Value 1Meg
SYMBOL voltage 144 144 R90
WINDOW 123 0 0 Left 0
WINDOW 39 0 0 Left 0
SYMATTR InstName V2
SYMATTR Value 2
SYMBOL res 464 -32 R0
SYMATTR InstName R1
SYMATTR Value 2.2k
SYMBOL res 304 288 R90
WINDOW 0 0 56 VBottom 0
WINDOW 3 32 56 VTop 0
SYMATTR InstName R4
SYMATTR Value {10k-r}
SYMBOL res 384 288 R90
WINDOW 0 0 56 VBottom 0
WINDOW 3 32 56 VTop 0
SYMATTR InstName R5
SYMATTR Value {r}
SYMBOL cap 192 128 R90
WINDOW 0 0 32 VBottom 0
WINDOW 3 32 32 VTop 0
SYMATTR InstName C1
SYMATTR Value .01µ
SYMBOL res 272 176 R0
SYMATTR InstName R3
SYMATTR Value 10Meg
SYMBOL res 144 288 R90
WINDOW 0 0 56 VBottom 0
WINDOW 3 32 56 VTop 0
SYMATTR InstName R6
SYMATTR Value 320k
SYMBOL res 464 288 R90
WINDOW 0 0 56 VBottom 0
WINDOW 3 32 56 VTop 0
SYMATTR InstName R7
SYMATTR Value 1k
TEXT 200 -168 Left 0 !.tran 20
TEXT 840 16 Left 0 !.SUBCKT DN2540 1 2 3 4 \n*\n* NODE 1 = DRAIN\n* NODE 2 = GATE\n* NODE 3 = SOURCE\n* NODE 4 = BODY\n*\nMOS1 11 2 3 4 ND_DMOS  L=2.5E-06  W=58E-3  \nJFET 1 3 11 JMOD 1   \nDBODY 4 1 DMOS \nR 1 11 1E+05 \n*\n.MODEL ND_DMOS NMOS \n+ LEVEL=3 RS=1.05 NSUB=5.0E14 DELTA=0.1 \n+ KAPPA=0.20 TPG=1 CGDO=3.1716E-10 RD=11 VTO=-1.50 VMAX=1.0E7 \n+ ETA=0.0223089 NFS=6.6E10 TOX=725E-10 LD=1.698E-9 UO=862.425 \n+ XJ=6.4666E-7 THETA=1.0E-5 CGSO=2.50E-9 L=4.0E-6 W=59E-3\n*\n.MODEL DMOS D \n+ IS=5.831E-13   N=1.027      RS=4.8 \n+ BV=400         IBV=0.001 \n*\n.MODEL JMOD NJF \n+ VTO=-2.4       BETA=0.3248  IS=1E-12 \n+ RD=4.45        LAMBDA=0 \n.ENDS
TEXT 56 408 Left 0 !.step param r list 9.9k 7k 5k 3k 1k 100
