Version 4
SHEET 1 5384 24476
WIRE -784 -1136 -880 -1136
WIRE -784 -1040 -784 -1072
WIRE -656 -1040 -784 -1040
WIRE -784 -1024 -784 -1040
WIRE -656 -960 -656 -1040
WIRE -624 -800 -1280 -800
WIRE -528 -800 -624 -800
WIRE -432 -800 -448 -800
WIRE -1280 -688 -1280 -720
WIRE -1280 -688 -1472 -688
WIRE -960 -688 -1280 -688
WIRE -208 -688 -960 -688
WIRE -128 -688 -128 -800
WIRE -1280 -672 -1280 -688
WIRE -432 -592 -432 -800
WIRE -432 -592 -688 -592
WIRE -384 -592 -432 -592
WIRE -272 -592 -320 -592
WIRE -224 -592 -272 -592
WIRE -128 -592 -128 -688
WIRE -128 -592 -160 -592
WIRE -64 -592 -128 -592
WIRE 32 -592 0 -592
WIRE 160 -592 32 -592
WIRE -960 -560 -960 -608
WIRE -944 -560 -960 -560
WIRE -880 -560 -880 -1136
WIRE -960 -528 -960 -560
WIRE -624 -528 -624 -800
WIRE -432 -528 -432 -592
WIRE -688 -480 -688 -592
WIRE -672 -480 -688 -480
WIRE 160 -480 160 -592
WIRE 160 -480 -480 -480
WIRE -1360 -464 -1408 -464
WIRE -1248 -464 -1360 -464
WIRE -1200 -464 -1248 -464
WIRE -1056 -464 -1200 -464
WIRE -912 -464 -992 -464
WIRE -992 -416 -992 -464
WIRE -992 -416 -1136 -416
WIRE -464 -416 -464 -432
WIRE -400 -416 -464 -416
WIRE -1408 -384 -1408 -400
WIRE -1360 -384 -1408 -384
WIRE -1248 -368 -1248 -464
WIRE -1200 -368 -1248 -368
WIRE -1136 -368 -1136 -416
WIRE -1136 -368 -1200 -368
WIRE -1056 -368 -1056 -464
WIRE -912 -368 -1056 -368
WIRE -752 -368 -912 -368
WIRE -656 -368 -656 -432
WIRE -656 -368 -672 -368
WIRE -464 -336 -464 -352
WIRE -400 -336 -464 -336
WIRE -272 -336 -272 -432
WIRE -272 -336 -400 -336
WIRE -128 -336 -128 -512
WIRE -128 -336 -272 -336
WIRE 32 -336 32 -512
WIRE 32 -336 -128 -336
WIRE -400 -320 -400 -336
WIRE -1280 -288 -1280 -592
WIRE -1136 -288 -1280 -288
WIRE -1472 -256 -1472 -688
WIRE -1280 -160 -1280 -288
WIRE -1472 -64 -1472 -192
WIRE -1408 -64 -1408 -384
WIRE -1408 -64 -1472 -64
WIRE -1280 -64 -1280 -96
WIRE -1280 -64 -1408 -64
WIRE -1056 -64 -1280 -64
WIRE -976 -64 -976 -208
WIRE -1472 -48 -1472 -64
WIRE -1056 48 -1056 -64
WIRE -976 48 -976 -64
FLAG -1472 -48 0
FLAG -1280 -880 0
FLAG -784 -880 0
FLAG -656 -880 0
FLAG -400 -320 0
FLAG -128 -800 0
SYMBOL Misc\\Pinout9 -1056 -448 R0
SYMATTR InstName U10
SYMATTR SpiceModel EF86pinout
SYMBOL res -976 -704 R0
SYMATTR InstName R74
SYMATTR Value 220k
SYMBOL res -1344 -368 R180
WINDOW 0 -29 76 Left 0
WINDOW 3 -28 46 Left 0
SYMATTR InstName R75
SYMATTR Value 1.5k
SYMBOL voltage -960 48 R90
WINDOW 0 26 -5 VBottom 0
WINDOW 3 49 48 VTop 0
WINDOW 123 37 -46 VBottom 0
WINDOW 39 0 0 Left 0
SYMATTR InstName V5
SYMATTR Value SINE(0 1 1000)
SYMATTR Value2 AC 1
SYMBOL cap -1264 -160 M0
WINDOW 3 27 47 Left 0
SYMATTR Value .1µ
SYMATTR InstName C33
SYMBOL res -960 -192 R180
WINDOW 0 36 76 Left 0
WINDOW 3 36 40 Left 0
SYMATTR InstName R76
SYMATTR Value 68k
SYMBOL res -960 -48 M270
WINDOW 0 62 51 VTop 0
WINDOW 3 61 54 VBottom 0
SYMATTR InstName R77
SYMATTR Value 1Meg
SYMBOL res -1296 -688 R0
SYMATTR InstName R78
SYMATTR Value 5.5Meg
SYMBOL polcap -1456 -256 M0
SYMATTR InstName C34
SYMATTR Value 8µ
SYMATTR SpiceLine V=450
SYMBOL cap -1424 -464 R0
SYMATTR InstName C35
SYMATTR Value 25µ
SYMBOL cap -880 -576 R90
WINDOW 0 0 32 VBottom 0
WINDOW 3 32 32 VTop 0
SYMATTR InstName C36
SYMATTR Value .047µ
SYMBOL voltage -1280 -784 R180
WINDOW 0 24 104 Left 0
WINDOW 3 24 16 Left 0
WINDOW 123 0 0 Left 0
WINDOW 39 0 0 Left 0
SYMATTR InstName V1
SYMATTR Value 260
SYMBOL cap -800 -1136 R0
SYMATTR InstName C1
SYMATTR Value .05µ
SYMBOL cap -800 -1024 R0
SYMATTR InstName C2
SYMATTR Value .001µ
SYMBOL res -800 -976 R0
SYMATTR InstName R1
SYMATTR Value 1Meg
SYMBOL res -672 -976 R0
SYMATTR InstName R2
SYMATTR Value 1Meg
SYMBOL Misc\\triode -624 -480 R0
WINDOW 3 -90 -52 Left 0
WINDOW 0 -41 -78 Left 0
SYMATTR Value ""
SYMATTR InstName U1
SYMATTR SpiceModel 12AX7
SYMBOL Misc\\triode -432 -480 R0
WINDOW 3 -90 -52 Left 0
WINDOW 0 -41 -78 Left 0
SYMATTR Value ""
SYMATTR InstName U2
SYMATTR SpiceModel 12AX7
SYMBOL res -432 -816 R90
WINDOW 0 0 56 VBottom 0
WINDOW 3 32 56 VTop 0
SYMATTR InstName R4
SYMATTR Value 220k
SYMBOL res -656 -384 R90
WINDOW 0 0 56 VBottom 0
WINDOW 3 32 56 VTop 0
SYMATTR InstName R3
SYMATTR Value 100k
SYMBOL cap -480 -416 R0
SYMATTR InstName C3
SYMATTR Value 25µ
SYMBOL res -416 -432 R0
SYMATTR InstName R5
SYMATTR Value 3.3k
SYMBOL cap -320 -608 R90
WINDOW 0 0 32 VBottom 0
WINDOW 3 32 32 VTop 0
SYMATTR InstName C4
SYMATTR Value .02µ
SYMBOL cap -160 -608 R90
WINDOW 0 0 32 VBottom 0
WINDOW 3 32 32 VTop 0
SYMATTR InstName C5
SYMATTR Value .01µ
SYMBOL cap 0 -608 R90
WINDOW 0 0 32 VBottom 0
WINDOW 3 32 32 VTop 0
SYMATTR InstName C6
SYMATTR Value .01µ
SYMBOL res -288 -608 R0
SYMATTR InstName R6
SYMATTR Value 220k
SYMBOL res -288 -528 R0
SYMATTR InstName R7
SYMATTR Value {s}
SYMBOL res -144 -608 R0
SYMATTR InstName R8
SYMATTR Value 1Meg
SYMBOL res 16 -608 R0
SYMATTR InstName R9
SYMATTR Value 1Meg
SYMBOL res -1296 -816 R0
SYMATTR InstName R10
SYMATTR Value 22k
SYMBOL res -112 -704 R90
WINDOW 0 0 56 VBottom 0
WINDOW 3 32 56 VTop 0
SYMATTR InstName R12
SYMATTR Value 10Meg
TEXT -1320 -928 Left 0 ;ground 2&7 to ground or to 3&8.
TEXT -2056 -1280 Left 0 !.SUBCKT EF86pinout S E1 K H1 H2 A E2 U G\n \n*\n* Calculate reduction in mu when Vg < -3V\n*\nEmu             mu              0               VALUE={LIMIT{V(G,K),-3,999}+LIMIT{V(G,K)+3,-999,0}*0.714}\n*\n* Calculate contribution to cathode current\n*\nEat             at              0               VALUE={0.636*ATAN(V(A,K)/15)}\nEgs             gs              0               VALUE={LIMIT{V(S,K)/27.5+V(mu)*1.32+1,0,1E6}}\nEgs2            gs2             0               VALUE={PWRS(V(gs),1.5)}\nEcath           cc              0               VALUE={V(gs2)*V(at)}\n*\n* Calculate anode current\n*\nGa              A               K               VALUE={5.83E-4*V(cc)}\n*\n* Calculate screen current\n*\nEscrn           sc              0               VALUE={V(gs2)*(1.1-V(at))}\nGs              S               K               VALUE={0.5E-3*V(sc)}\n*\n* Capacitances\n*\nCg1             G               K               3.8p\nCak             A               K               5.3p\nCg1a            G               A               0.05p\n.ENDS
TEXT -1032 152 Left 0 ;input
TEXT -904 -1216 Left 0 !.tran 5
TEXT -2048 -240 Left 0 !.SUBCKT 12AX7 1 2 3\n* ANODE G CAT\nX1 1 2 3 TRIO2 G=1.02m MU=90.6 B=18 Vc=50.7 k=5\nX2 2 3 Igrid ALPHA=.01m BETA=.1U\nC1 1 2 1.7p\nC2 2 3 1.6p\nC3 1 3 .46p\nRF1 1 3 200MEG\nRF2 2 3 50MEG\n.ENDS
TEXT -1632 -1280 Left 0 !.SUBCKT TRIO2 A G C\nB1 A C I={G}*((1+V(G,C)/{B})*(V(G,C)+((V(A,C)+{Vc})/{MU}))**1.5)*(V(A,C)/(V(A,C)+{k}))\n.ENDS
TEXT -2168 -408 Left 0 !.SUBCKT Igrid G1 C\n* Courant grille\nB4 6 0 V=IF(V(G1,C)>0,{ALPHA}*V(G1,C)**1.5,{BETA}/-(V(G1,C)-.1))\nB5 G1 C I=V(6,0)\n.ENDS
TEXT -912 -1192 Left 0 !.step param s list 1Meg 100
