Version 4
SHEET 1 5192 24476
WIRE 1216 -400 1024 -400
WIRE 1552 -336 1552 -352
WIRE 1024 -320 1024 -400
WIRE 1216 -224 1216 -400
WIRE 1248 -224 1216 -224
WIRE 1600 -176 1568 -176
WIRE 1024 -160 1024 -240
WIRE 1024 -160 976 -160
WIRE 1248 -160 1216 -160
WIRE 1568 -160 1568 -176
WIRE 1568 -160 1472 -160
WIRE 976 -144 976 -160
WIRE 1248 -96 1216 -96
WIRE 1552 -96 1472 -96
WIRE 1600 -96 1552 -96
WIRE 1024 -80 1024 -160
WIRE 1024 128 1024 0
WIRE 1216 128 1216 -96
WIRE 1216 128 1024 128
FLAG 1552 -16 0
FLAG 1216 -160 B1
FLAG 976 -144 0
FLAG 1552 -256 0
FLAG 1552 -352 B1
SYMBOL Misc\\DIP6 1360 -128 R0
SYMATTR InstName U7
SYMATTR SpiceModel trace15
SYMBOL res 1536 -112 R0
SYMATTR InstName R19
SYMATTR Value 100Meg
SYMBOL res 1584 -192 R0
SYMATTR InstName R1
SYMATTR Value 8
SYMBOL voltage 1552 -352 R0
WINDOW 123 0 0 Left 0
WINDOW 39 0 0 Left 0
SYMATTR InstName V1
SYMATTR Value 300
SYMBOL current 1024 -320 R0
WINDOW 3 8 -33 Left 0
WINDOW 123 0 0 Left 0
WINDOW 39 0 0 Left 0
SYMATTR Value SINE(0 .01 1000)
SYMATTR InstName I1
SYMBOL current 1024 -80 R0
WINDOW 3 8 86 Left 0
WINDOW 123 0 0 Left 0
WINDOW 39 0 0 Left 0
SYMATTR Value SINE(0 .01 1000)
SYMATTR InstName I2
TEXT 1664 -384 Left 0 !.SUBCKT trace15 1 2 3 4 5 6\n* 2k to 8 ratio\n*Primary\n*\nLleak1    1    20   2mH\nLpri1       20  21   150H\nRpri1       21  2     186\nCpri1       1    2     120p\nLleak2    2    22    2mH\nLpri2       22  23    150H\nRpri2      23   3      201\nCpri2       2     3     120p\n*\n* Secondary\n*\nLleak4    4    27    100u\nLsec2     27  28    3.3\nRsec2    28    5     .4\n \nKcoup   Lpri1 LPri2 Lsec2 1\n.ENDS
TEXT 1328 -320 Left 0 ;4k to 8
TEXT 960 200 Left 0 !.tran .001
