Version 4
SHEET 1 2900 24476
WIRE 1456 -816 1456 -864
WIRE 176 -608 -176 -608
WIRE 816 -608 176 -608
WIRE 880 -608 880 -720
WIRE 880 -608 816 -608
WIRE 1168 -608 880 -608
WIRE 1360 -608 1168 -608
WIRE -176 -544 -624 -544
WIRE -48 -544 -176 -544
WIRE 176 -544 32 -544
WIRE 448 -544 176 -544
WIRE 480 -544 448 -544
WIRE 544 -544 480 -544
WIRE 672 -544 544 -544
WIRE 688 -544 672 -544
WIRE 816 -544 768 -544
WIRE 832 -544 816 -544
WIRE 960 -544 832 -544
WIRE 1168 -544 1040 -544
WIRE 1232 -544 1168 -544
WIRE 1360 -544 1312 -544
WIRE 1424 -544 1424 -720
WIRE 1424 -544 1360 -544
WIRE -624 -512 -624 -544
WIRE -496 -512 -624 -512
WIRE -624 -496 -624 -512
WIRE -496 -496 -496 -512
WIRE 832 -480 832 -544
WIRE 1120 -480 832 -480
WIRE 544 -400 544 -544
WIRE 1216 -400 1040 -400
WIRE -624 -384 -624 -416
WIRE -416 -384 -624 -384
WIRE -304 -384 -352 -384
WIRE -128 -384 -304 -384
WIRE 0 -384 -64 -384
WIRE 1040 -368 1040 -400
WIRE -624 -352 -624 -384
WIRE 448 -320 448 -544
WIRE 720 -320 544 -320
WIRE 816 -320 784 -320
WIRE 848 -320 816 -320
WIRE 992 -320 928 -320
WIRE -176 -304 -304 -304
WIRE 0 -304 0 -384
WIRE 160 -304 96 -304
WIRE -496 -288 -496 -416
WIRE -496 -288 -576 -288
WIRE -1136 -272 -1152 -272
WIRE -864 -272 -1056 -272
WIRE -768 -272 -800 -272
WIRE -672 -272 -688 -272
WIRE 816 -272 816 -320
WIRE 912 -256 896 -256
WIRE 432 -240 352 -240
WIRE 448 -240 432 -240
WIRE 496 -240 448 -240
WIRE 1216 -240 1216 -400
WIRE -176 -224 -176 -240
WIRE -176 -224 -304 -224
WIRE -112 -224 -176 -224
WIRE 0 -224 -32 -224
WIRE 96 -224 96 -304
WIRE 96 -224 0 -224
WIRE 272 -224 160 -224
WIRE 352 -224 352 -240
WIRE 352 -224 336 -224
WIRE 480 -224 480 -544
WIRE -176 -208 -176 -224
WIRE 432 -192 432 -240
WIRE 432 -192 416 -192
WIRE 544 -192 544 -224
WIRE -800 -176 -800 -272
WIRE -656 -176 -656 -224
WIRE 672 -176 672 -544
WIRE 544 -160 544 -192
WIRE 816 -160 816 -192
WIRE 816 -160 768 -160
WIRE 896 -160 896 -256
WIRE 896 -160 816 -160
WIRE 976 -160 976 -256
WIRE 1008 -160 1008 -272
WIRE 1008 -160 976 -160
WIRE 1120 -160 1120 -480
WIRE 1216 -160 1120 -160
WIRE -176 -144 -304 -144
WIRE 480 -144 416 -144
WIRE 496 -144 480 -144
WIRE 816 -144 816 -160
WIRE 0 -128 0 -144
WIRE 336 -128 336 -192
WIRE 336 -128 320 -128
WIRE 416 -128 416 -144
WIRE 416 -128 400 -128
WIRE 1008 -112 1008 -160
WIRE -496 -96 -496 -224
WIRE 160 -64 160 -144
WIRE 336 -64 336 -128
WIRE 416 -64 416 -128
WIRE 672 -64 672 -96
WIRE 672 -64 544 -64
WIRE 688 -64 672 -64
WIRE 816 -64 752 -64
WIRE 896 -64 816 -64
WIRE 992 -64 976 -64
WIRE 1040 32 1040 -16
WIRE 1216 32 1216 -80
WIRE 1216 32 1040 32
FLAG -656 -96 0
FLAG -1152 -272 0
FLAG -800 -96 0
FLAG -496 -96 0
FLAG -304 -64 0
FLAG 0 -64 0
FLAG 160 -64 0
FLAG 768 -160 0
FLAG 880 -720 0
FLAG 1376 -864 0
FLAG 624 -192 0
FLAG 320 -128 0
SYMBOL Misc\\pentode -624 -288 R0
SYMATTR InstName U1
SYMATTR Value ""
SYMATTR SpiceModel EF86
SYMBOL res -640 -512 R0
SYMATTR InstName R1
SYMATTR Value 220k
SYMBOL res -672 -192 R0
SYMATTR InstName R2
SYMATTR Value 2.2k
SYMBOL cap -864 -288 M90
WINDOW 0 0 32 VBottom 0
WINDOW 3 32 32 VTop 0
SYMATTR InstName C2
SYMATTR Value .01µ
SYMBOL voltage -1152 -272 M90
WINDOW 0 -32 56 VBottom 0
WINDOW 3 49 48 VTop 0
WINDOW 123 79 49 VTop 0
WINDOW 39 0 0 Left 0
SYMATTR InstName V2
SYMATTR Value SINE(0 1.25 400)
SYMBOL cap -512 -288 R0
SYMATTR InstName C3
SYMATTR Value .1µ
SYMBOL res -784 -288 M90
WINDOW 0 0 56 VBottom 0
WINDOW 3 32 56 VTop 0
SYMATTR InstName R3
SYMATTR Value 68k
SYMBOL res -816 -192 R0
SYMATTR InstName R4
SYMATTR Value 1Meg
SYMBOL res -512 -512 R0
SYMATTR InstName R5
SYMATTR Value 1Meg
SYMBOL cap -352 -400 R90
WINDOW 0 0 32 VBottom 0
WINDOW 3 32 32 VTop 0
SYMATTR InstName C1
SYMATTR Value .1µ
SYMATTR SpiceLine V=400
SYMBOL res -320 -400 R0
SYMATTR InstName R9
SYMATTR Value 100k
SYMBOL res -320 -320 R0
SYMATTR InstName R10
SYMATTR Value 700k
SYMBOL res -320 -160 R0
SYMATTR InstName R11
SYMATTR Value 10k
SYMBOL cap -192 -208 R0
SYMATTR InstName C6
SYMATTR Value 4.7n
SYMBOL cap -192 -304 R0
WINDOW 0 42 22 Left 0
SYMATTR InstName C7
SYMATTR Value 470p
SYMBOL res -320 -240 R0
SYMATTR InstName R12
SYMATTR Value 300k
SYMBOL res -16 -240 R90
WINDOW 0 0 56 VBottom 0
WINDOW 3 32 56 VTop 0
SYMATTR InstName R14
SYMATTR Value 180k
SYMBOL res -16 -240 R0
SYMATTR InstName R15
SYMATTR Value 235k
SYMBOL res -16 -320 R0
SYMATTR InstName R16
SYMATTR Value 235k
SYMBOL cap -64 -400 R90
WINDOW 0 0 32 VBottom 0
WINDOW 3 32 32 VTop 0
SYMATTR InstName C8
SYMATTR Value 330p
SYMBOL cap -16 -128 R0
WINDOW 3 46 53 Left 0
SYMATTR Value 3.3n
SYMATTR InstName C9
SYMBOL res 144 -240 R0
SYMATTR InstName R7
SYMATTR Value 1Meg
SYMBOL res 144 -320 R0
SYMATTR InstName R8
SYMATTR Value 0.001k
SYMBOL cap 976 -272 R90
WINDOW 0 0 32 VBottom 0
WINDOW 3 32 32 VTop 0
SYMATTR InstName C5
SYMATTR Value 47µ
SYMBOL res 992 -176 R90
WINDOW 0 0 56 VBottom 0
WINDOW 3 32 56 VTop 0
SYMATTR InstName R13
SYMATTR Value 820
SYMBOL cap 336 -240 R90
WINDOW 0 0 32 VBottom 0
WINDOW 3 32 32 VTop 0
SYMATTR InstName C10
SYMATTR Value .22µ
SYMBOL res 528 -416 R0
SYMATTR InstName R24
SYMATTR Value 100k
SYMBOL cap 784 -336 R90
WINDOW 0 0 32 VBottom 0
WINDOW 3 32 32 VTop 0
SYMATTR InstName C12
SYMATTR Value .1µ
SYMBOL cap 752 -80 R90
WINDOW 0 0 32 VBottom 0
WINDOW 3 32 32 VTop 0
SYMATTR InstName C13
SYMATTR Value .1µ
SYMBOL res 800 -288 R0
SYMATTR InstName R26
SYMATTR Value 220k
SYMBOL res 800 -160 R0
SYMATTR InstName R27
SYMATTR Value 220k
SYMBOL res 832 -304 R270
WINDOW 0 32 56 VTop 0
WINDOW 3 0 56 VBottom 0
SYMATTR InstName R28
SYMATTR Value 2.2k
SYMBOL res 880 -48 R270
WINDOW 0 32 56 VTop 0
WINDOW 3 0 56 VBottom 0
SYMATTR InstName R29
SYMATTR Value 2.2k
SYMBOL res 1328 -560 R90
WINDOW 0 0 56 VBottom 0
WINDOW 3 32 56 VTop 0
SYMATTR InstName R30
SYMATTR Value 1k
SYMATTR SpiceLine pwr=5
SYMBOL polcap 1376 -544 R180
WINDOW 0 24 57 Left 0
WINDOW 3 24 8 Left 0
SYMATTR InstName C14
SYMATTR Value 22µ
SYMBOL polcap 832 -544 R180
WINDOW 0 24 57 Left 0
WINDOW 3 24 8 Left 0
SYMATTR InstName C15
SYMATTR Value 47µ
SYMBOL res 784 -560 R90
WINDOW 0 0 56 VBottom 0
WINDOW 3 32 56 VTop 0
SYMATTR InstName R31
SYMATTR Value 6k8
SYMATTR SpiceLine pwr=1
SYMBOL res 48 -560 R90
WINDOW 0 0 56 VBottom 0
WINDOW 3 32 56 VTop 0
SYMATTR InstName R32
SYMATTR Value 10k
SYMBOL polcap 192 -544 R180
WINDOW 0 24 57 Left 0
WINDOW 3 24 8 Left 0
SYMATTR InstName C16
SYMATTR Value 22µ
SYMBOL polcap -160 -544 R180
WINDOW 0 24 57 Left 0
WINDOW 3 24 8 Left 0
SYMATTR InstName C17
SYMATTR Value 10µ
SYMBOL res 1200 -256 R0
SYMATTR InstName R6
SYMATTR Value 22.4k
SYMBOL res 1200 -176 R0
SYMATTR InstName R17
SYMATTR Value 22.4k
SYMBOL Misc\\triode 1040 -320 R0
WINDOW 3 -90 -52 Left 0
WINDOW 0 -41 -78 Left 0
SYMATTR Value ""
SYMATTR InstName U2
SYMATTR SpiceModel 12AU7
SYMBOL Misc\\triode 1040 -64 M180
WINDOW 3 -73 -71 Left 0
WINDOW 0 -69 -43 Left 0
SYMATTR Value ""
SYMATTR InstName U3
SYMATTR SpiceModel 12AU7
SYMBOL cap 1152 -608 R0
SYMATTR InstName C4
SYMATTR Value 47µ
SYMBOL res 1056 -560 R90
WINDOW 0 0 56 VBottom 0
WINDOW 3 32 56 VTop 0
SYMATTR InstName R18
SYMATTR Value 2k
SYMBOL Misc\\Diode 1456 -768 R0
SYMATTR InstName U6
SYMATTR Value ""
SYMATTR SpiceModel 5Y3GT
SYMBOL voltage 1472 -864 R90
WINDOW 0 -32 56 VBottom 0
WINDOW 3 32 56 VTop 0
WINDOW 123 0 0 Left 0
WINDOW 39 0 0 Left 0
SYMATTR InstName V1
SYMATTR Value SINE(0 424 120)
SYMBOL res 656 -192 R0
SYMATTR InstName R19
SYMATTR Value 100k
SYMBOL nmos 496 -320 R0
SYMATTR InstName M1
SYMBOL nmos 496 -64 M180
SYMATTR InstName M2
SYMBOL res 640 -208 R90
WINDOW 0 0 56 VBottom 0
WINDOW 3 32 56 VTop 0
SYMATTR InstName R20
SYMATTR Value 10k
SYMBOL cap 400 -144 R90
WINDOW 0 0 32 VBottom 0
WINDOW 3 -21 0 VTop 0
SYMATTR InstName C11
SYMATTR Value .1µ
SYMBOL res 432 -80 R90
WINDOW 0 0 56 VBottom 0
WINDOW 3 32 56 VTop 0
SYMATTR InstName R21
SYMATTR Value 1Meg
SYMBOL res 432 -208 R90
WINDOW 0 0 56 VBottom 0
WINDOW 3 32 56 VTop 0
SYMATTR InstName R22
SYMATTR Value 1Meg
SYMBOL res 432 -336 R0
SYMATTR InstName R23
SYMATTR Value {x}
SYMBOL res 464 -240 R0
SYMATTR InstName R25
SYMATTR Value {x}
TEXT -408 -664 Left 0 !.tran 10
TEXT -952 -40 Left 0 ;fourth grid connected to first.  (not shown)
TEXT -376 -240 Left 0 ;Bass\n1M
TEXT 8 -344 Left 0 ;Treble\n470k
TEXT -256 -440 Left 0 ;James Tone Stack
TEXT 464 -768 Left 0 ;See ax84_MoonlightJon.pdf for powersupply details
TEXT -1048 -8 Left 0 ;Too large a uF cap here will lead to clipping on top of waveform
TEXT 1152 -64 Left 0 ;Hammond 125A
TEXT 152 -328 Left 0 ;Volume
TEXT -1040 88 Left 0 !.SUBCKT EF86 K G S U A\n \n*\n* Calculate reduction in mu when Vg < -3V\n*\nEmu             mu              0               VALUE={LIMIT{V(G,K),-3,999}+LIMIT{V(G,K)+3,-999,0}*0.714}\n*\n* Calculate contribution to cathode current\n*\nEat             at              0               VALUE={0.636*ATAN(V(A,K)/15)}\nEgs             gs              0               VALUE={LIMIT{V(S,K)/27.5+V(mu)*1.32+1,0,1E6}}\nEgs2            gs2             0               VALUE={PWRS(V(gs),1.5)}\nEcath           cc              0               VALUE={V(gs2)*V(at)}\n*\n* Calculate anode current\n*\nGa              A               K               VALUE={5.83E-4*V(cc)}\n*\n* Calculate screen current\n*\nEscrn           sc              0               VALUE={V(gs2)*(1.1-V(at))}\nGs              S               K               VALUE={0.5E-3*V(sc)}\n*\n* Capacitances\n*\nCg1             G               K               3.8p\nCak             A               K               5.3p\nCg1a            G               A               0.05p\n.ENDS
TEXT 24 128 Left 0 !.SUBCKT 12AU7 1 2 3\n* ANODE G CAT\nX1 1 2 3 TRIO1 G=.524m MU=15.2 B=49.7 Vc=9.93\nX2 2 3 Igrid ALPHA=.04m BETA=.1U\nC1 1 2 1.6p\nC2 2 3 2.5p\nC3 1 3 .45p\nRF1 1 3 200MEG\nRF2 2 3 50MEG\n.ENDS
TEXT 24 424 Left 0 !.SUBCKT TRIO1 A G C\nB1 A C I={G}*(1+V(G,C)/({B}-(V(G,C)/1000)))*(V(G,C)+((V(A,C)+{Vc})/{MU}))**1.5\n.ENDS
TEXT 24 520 Left 0 !.SUBCKT Igrid G1 C\n* Courant grille\nB4 6 0 V=IF(V(G1,C)>0,{ALPHA}*V(G1,C)**1.5,{BETA}/-(V(G1,C)-.1))\nB5 G1 C I=V(6,0)\n.ENDS
TEXT 32 672 Left 0 !.SUBCKT 6SN7GTB 1 2 3\n* ANODE G CAT\nX1 1 2 3 TRIO1 G=.835m MU=19 B=44.7 Vc=9.3\nX2 2 3 Igrid ALPHA=.05m BETA=.1U\nC1 1 2 2.8p\nC2 2 3 3.4p\nC3 1 3 3.2p\nRF1 1 3 200MEG\nRF2 2 3 50MEG\n.ENDS
TEXT 528 144 Left 0 !.SUBCKT 12AX7 1 2 3\n* ANODE G CAT\nX1 1 2 3 TRIO2 G=1.02m MU=90.6 B=18 Vc=50.7 k=5\nX2 2 3 Igrid ALPHA=.01m BETA=.1U\nC1 1 2 1.7p\nC2 2 3 1.6p\nC3 1 3 .46p\nRF1 1 3 200MEG\nRF2 2 3 50MEG\n.ENDS
TEXT 712 520 Left 0 !.SUBCKT 12AT7 1 2 3\n* ANODE G CAT\nX1 1 2 3 TRIO3 G=1.766m MU=45.3 B=3.92 C=.88 Vc=24.6\nX2 2 3 Igrid ALPHA=.04m BETA=.1U\nC1 1 2 1.6p\nC2 2 3 2.5p\nC3 1 3 .45p\nRF1 1 3 200MEG\nRF2 2 3 50MEG\n.ENDS
TEXT 280 824 Left 0 !.SUBCKT TRIO2 A G C\nB1 A C I={G}*((1+V(G,C)/{B})*(V(G,C)+((V(A,C)+{Vc})/{MU}))**1.5)*(V(A,C)/(V(A,C)+{k}))\n.ENDS
TEXT 432 888 Left 0 !.SUBCKT TRIO3 A G C\nB1 A C I={G}*(1+(V(G,C)/({B}-(V(G,C)/{C}))))*(V(G,C)+((V(A,C)+{Vc})/{MU}))**1.5\n.ENDS
TEXT 1464 -648 Left 0 !.SUBCKT 5Y3GT A K\nGP  A  K  VALUE={2.69E-4*(PWR(V(A,K),1.5)+PWRS(V(A,K),1.5))/2}\n.ENDS 5Y3GT
TEXT 1408 -528 Left 0 ;360
TEXT 1136 -528 Left 0 ;344
TEXT 896 -528 Left 0 ;315
TEXT 472 -528 Left 0 ;286
TEXT -368 -528 Left 0 ;276
TEXT -656 -376 Left 0 ;88
TEXT -528 -352 Left 0 ;97
TEXT -360 -400 Left 0 ;0
TEXT 264 -240 Left 0 ;0
TEXT -648 -192 Left 0 ;2.3
TEXT 1016 -152 Left 0 ;8.4
TEXT -136 -736 Left 0 !.step param x list  5Meg  15Meg  30Meg
