Version 4
SHEET 1 880 680
WIRE 0 288 0 256
SYMBOL Misc\\pentode 32 192 R0
SYMATTR InstName U1
