Version 4
SHEET 1 2572 680
WIRE 384 -224 256 -224
WIRE 688 -224 384 -224
WIRE 976 -224 768 -224
WIRE 1040 -224 976 -224
WIRE 1120 -224 1040 -224
WIRE 1312 -224 1120 -224
WIRE 1904 -224 1392 -224
WIRE 1920 -224 1904 -224
WIRE 1984 -224 1920 -224
WIRE 2128 -224 2064 -224
WIRE 2208 -224 2128 -224
WIRE 256 -192 256 -224
WIRE 256 -192 80 -192
WIRE 272 -192 256 -192
WIRE 272 -160 272 -192
WIRE 976 -160 976 -224
WIRE 1120 -160 1120 -224
WIRE 80 -128 80 -192
WIRE 1936 -64 1792 -64
WIRE 144 -48 80 -48
WIRE 368 -48 208 -48
WIRE 640 -48 368 -48
WIRE 1792 -16 1792 -64
WIRE 80 32 80 -48
WIRE 1120 32 1120 -80
WIRE 1392 32 1120 32
WIRE 1536 32 1456 32
WIRE 1616 32 1536 32
WIRE 1744 32 1696 32
WIRE 976 48 976 -80
WIRE 1360 48 976 48
WIRE 368 64 368 32
WIRE 480 64 432 64
WIRE 768 64 592 64
WIRE 1936 64 1936 -64
WIRE 32 80 16 80
WIRE 368 80 368 64
WIRE 640 80 640 16
WIRE 272 96 272 -80
WIRE 272 96 128 96
WIRE 976 96 976 48
WIRE 1120 96 1120 32
WIRE 2128 96 2064 96
WIRE 32 112 -16 112
WIRE 2064 112 2064 96
WIRE -96 144 -96 112
WIRE 864 144 768 144
WIRE 1248 144 1168 144
WIRE 1536 144 1536 112
WIRE 1536 144 1488 144
WIRE 1648 144 1536 144
WIRE 1760 144 1760 80
WIRE 1760 144 1728 144
WIRE 1904 144 1904 -224
WIRE 1936 144 1904 144
WIRE 480 160 480 64
WIRE 480 160 368 160
WIRE 496 160 480 160
WIRE 592 160 592 64
WIRE 592 160 576 160
WIRE 640 160 592 160
WIRE -160 176 -160 112
WIRE 272 176 272 160
WIRE 1536 176 1536 144
WIRE 16 192 16 80
WIRE 48 192 48 160
WIRE 48 192 16 192
WIRE 112 192 48 192
WIRE 2096 192 2064 192
WIRE 1760 208 1760 144
WIRE 928 240 928 144
WIRE 944 240 944 192
WIRE 1040 240 944 240
WIRE 1152 240 1152 192
WIRE 1152 240 1040 240
WIRE 1168 240 1168 144
WIRE 1248 240 1248 208
WIRE 368 256 368 240
WIRE 480 256 480 160
WIRE 480 256 432 256
WIRE 1360 256 1360 48
WIRE 1392 256 1360 256
WIRE 1536 256 1456 256
WIRE 1616 256 1536 256
WIRE 1744 256 1696 256
WIRE -160 272 -160 256
WIRE 48 272 48 256
WIRE 368 304 368 256
WIRE 1040 320 928 320
WIRE 1168 320 1040 320
WIRE 640 336 640 304
WIRE 1792 352 1792 304
WIRE 1936 352 1936 224
WIRE 1936 352 1792 352
FLAG -160 272 0
FLAG -96 224 0
FLAG 48 272 0
FLAG 112 272 0
FLAG 272 176 0
FLAG 368 384 0
FLAG 640 336 0
FLAG 768 224 0
FLAG 1040 400 0
FLAG 1248 240 0
FLAG 1488 144 0
FLAG 384 -288 0
FLAG 1040 -288 0
FLAG 1920 -288 0
FLAG 2128 -288 0
FLAG 2288 -224 0
SYMBOL Misc\\signal -160 160 R0
SYMATTR InstName V1
SYMBOL cap -96 96 R90
WINDOW 0 0 32 VBottom 0
WINDOW 3 32 32 VTop 0
SYMATTR InstName C1
SYMATTR Value .01µ
SYMATTR SpiceLine V=400
SYMBOL res 0 96 R90
WINDOW 0 0 56 VBottom 0
WINDOW 3 32 56 VTop 0
SYMATTR InstName R1
SYMATTR Value 68k
SYMBOL res -112 128 R0
SYMATTR InstName R2
SYMATTR Value 1Meg
SYMBOL Misc\\pentode 80 96 R0
SYMATTR InstName U1
SYMATTR Value X6EJ7
SYMBOL cap 32 192 R0
SYMATTR InstName C2
SYMATTR Value 10µ
SYMBOL res 96 176 R0
SYMATTR InstName R3
SYMATTR Value 470
SYMBOL res 64 -144 R0
SYMATTR InstName R4
SYMATTR Value 91k
SYMBOL cap 208 -64 R90
WINDOW 0 0 32 VBottom 0
WINDOW 3 32 32 VTop 0
SYMATTR InstName C3
SYMATTR Value .1µ
SYMATTR SpiceLine V=400
SYMBOL res 256 -176 R0
SYMATTR InstName R5
SYMATTR Value 330k
SYMBOL cap 256 96 R0
SYMATTR InstName C4
SYMATTR Value 0.1µ
SYMBOL res 352 -64 R0
WINDOW 3 46 61 Left 0
SYMATTR Value 220k
SYMATTR InstName R6
SYMBOL cap 432 48 R90
WINDOW 0 0 32 VBottom 0
WINDOW 3 -16 -5 VTop 0
SYMATTR InstName C5
SYMATTR Value .01µ
SYMATTR SpiceLine V=400
SYMBOL res 352 64 R0
WINDOW 0 35 51 Left 0
SYMATTR InstName R7
SYMATTR Value 250k
SYMBOL res 352 144 R0
WINDOW 3 39 60 Left 0
SYMATTR Value 0.001
SYMATTR InstName R8
SYMBOL cap 432 240 R90
WINDOW 0 0 32 VBottom 0
WINDOW 3 32 32 VTop 0
SYMATTR InstName C6
SYMATTR Value .047µ
SYMBOL res 352 288 R0
SYMATTR InstName R9
SYMATTR Value 220k
SYMBOL cap 624 -48 R0
SYMATTR InstName C7
SYMATTR Value .001µ
SYMBOL res 624 64 R0
SYMATTR InstName R10
SYMATTR Value 250k
SYMBOL res 624 144 R0
SYMATTR InstName R11
SYMATTR Value 0.001
SYMBOL cap 624 240 R0
SYMATTR InstName C8
SYMATTR Value .01µ
SYMBOL res 592 144 R90
WINDOW 0 0 56 VBottom 0
WINDOW 3 36 68 VTop 0
SYMATTR InstName R12
SYMATTR Value 47k
SYMBOL res 752 48 R0
SYMATTR InstName R13
SYMATTR Value .001
SYMBOL res 752 128 R0
SYMATTR InstName R14
SYMATTR Value 1Meg
SYMBOL cap 928 128 R90
WINDOW 0 0 32 VBottom 0
WINDOW 3 32 32 VTop 0
SYMATTR InstName C9
SYMATTR Value .02µ
SYMATTR SpiceLine V=400
SYMBOL Misc\\triode 976 144 R0
SYMATTR InstName U2
SYMATTR Value 6SL7
SYMBOL Misc\\triode 1120 144 M0
SYMATTR InstName U3
SYMATTR Value 6SL7
SYMBOL res 1024 224 R0
SYMATTR InstName R15
SYMATTR Value 470
SYMBOL res 912 224 R0
SYMATTR InstName R16
SYMATTR Value 470k
SYMBOL res 1152 224 R0
SYMATTR InstName R17
SYMATTR Value 470k
SYMBOL res 1024 304 R0
SYMATTR InstName R18
SYMATTR Value 22k
SYMBOL res 960 -176 R0
SYMATTR InstName R19
SYMATTR Value 100k
SYMBOL res 1104 -176 R0
SYMATTR InstName R20
SYMATTR Value 100k
SYMBOL res 784 -240 R90
WINDOW 0 0 56 VBottom 0
WINDOW 3 32 56 VTop 0
SYMATTR InstName R21
SYMATTR Value 10k
SYMBOL cap 368 -288 R0
SYMATTR InstName C10
SYMATTR Value 10µ
SYMATTR SpiceLine V=450
SYMBOL cap 1024 -288 R0
SYMATTR InstName C11
SYMATTR Value 22µ
SYMATTR SpiceLine V=450
SYMBOL res 1408 -240 R90
WINDOW 0 0 56 VBottom 0
WINDOW 3 32 56 VTop 0
SYMATTR InstName R22
SYMATTR Value 6k8
SYMATTR SpiceLine pwr=1
SYMBOL cap 1232 144 R0
SYMATTR InstName C12
SYMATTR Value .33µ
SYMATTR SpiceLine V=100
SYMBOL cap 1456 16 R90
WINDOW 0 0 32 VBottom 0
WINDOW 3 32 32 VTop 0
SYMATTR InstName C13
SYMATTR Value .1µ
SYMATTR SpiceLine V=400
SYMBOL cap 1456 240 R90
WINDOW 0 0 32 VBottom 0
WINDOW 3 32 32 VTop 0
SYMATTR InstName C14
SYMATTR Value .1µ
SYMATTR SpiceLine V=400
SYMBOL res 1520 16 R0
SYMATTR InstName R23
SYMATTR Value 220k
SYMBOL res 1520 160 R0
SYMATTR InstName R24
SYMATTR Value 220k
SYMBOL res 1712 16 R90
WINDOW 0 0 56 VBottom 0
WINDOW 3 32 56 VTop 0
SYMATTR InstName R25
SYMATTR Value 2k2
SYMBOL res 1712 240 R90
WINDOW 0 0 56 VBottom 0
WINDOW 3 32 56 VTop 0
SYMATTR InstName R26
SYMATTR Value 2k2
SYMBOL res 1744 128 R90
WINDOW 0 0 56 VBottom 0
WINDOW 3 32 56 VTop 0
SYMATTR InstName R27
SYMATTR Value 360
SYMATTR SpiceLine pwr=2
SYMBOL Misc\\triode 1792 32 R0
SYMATTR InstName U4
SYMATTR Value NH6SN7GTB
SYMBOL Misc\\triode 1792 256 M180
SYMATTR InstName U5
SYMATTR Value NH6SN7GTB
SYMBOL ind2 1920 48 R0
SYMATTR InstName L1
SYMATTR Value 100m
SYMATTR Type ind
SYMBOL ind2 1920 128 R0
SYMATTR InstName L2
SYMATTR Value 100m
SYMATTR Type ind
SYMBOL cap 1904 -288 R0
SYMATTR InstName C15
SYMATTR Value 47µ
SYMATTR SpiceLine V=450
SYMBOL res 2080 -240 R90
WINDOW 0 0 56 VBottom 0
WINDOW 3 32 56 VTop 0
SYMATTR InstName R28
SYMATTR Value 1k
SYMATTR SpiceLine pwr=5
SYMBOL cap 2112 -288 R0
SYMATTR InstName C16
SYMATTR Value 22µ
SYMATTR SpiceLine V=450
SYMBOL ind2 2080 208 R180
WINDOW 0 36 80 Left 0
WINDOW 3 36 40 Left 0
SYMATTR InstName L3
SYMATTR Value 1m
SYMATTR Type ind
SYMBOL Misc\\tuberectifier 2128 144 R0
SYMATTR InstName U6
SYMATTR Value VINT10
SYMBOL voltage 2304 -224 R90
WINDOW 0 -32 56 VBottom 0
WINDOW 3 32 56 VTop 0
WINDOW 123 0 0 Left 0
WINDOW 39 0 0 Left 0
SYMATTR InstName V2
SYMATTR Value SINE(-359.3 2.3 120)
TEXT -32 168 Left 0 ;1 Volt
TEXT 40 -8 Left 0 ;100 Volt
TEXT 152 80 Left 0 ;50 Volt
TEXT 120 -208 Left 0 ;230 Volt
TEXT 336 48 Left 0 ;bass
TEXT 608 48 Left 0 ;treble
TEXT 1000 232 Left 0 ;43 Volts
TEXT 1768 144 Left 0 ;7.7 Volt
TEXT 2040 336 Left 0 !K1 L3 L1 L2 0.99
TEXT 2040 272 Left 0 !.INC speaker.inc
TEXT 2056 304 Left 0 !.INC dmtriodep.inc
TEXT -192 504 Left 0 !.tran 1
TEXT 744 40 Left 0 ;Volume
TEXT 1424 -424 Left 0 !;tran 0 5 4.9
