Version 4
SHEET 1 2396 680
WIRE -128 -624 -128 -640
WIRE 96 -624 96 -640
WIRE -128 -528 -128 -544
WIRE 96 -528 96 -544
WIRE -128 -448 -128 -464
WIRE -80 -448 -128 -448
WIRE 96 -448 96 -464
WIRE 144 -448 96 -448
WIRE -128 -416 -128 -448
WIRE 96 -416 96 -448
WIRE 1872 -368 1872 -432
WIRE -128 -352 -128 -416
WIRE 96 -352 96 -416
WIRE 1872 -304 1872 -368
WIRE 256 -288 256 -304
WIRE 0 -272 -128 -272
WIRE 96 -272 0 -272
WIRE 384 -224 256 -224
WIRE 688 -224 384 -224
WIRE 976 -224 768 -224
WIRE 1040 -224 976 -224
WIRE 1120 -224 1040 -224
WIRE 1312 -224 1120 -224
WIRE 1648 -224 1392 -224
WIRE 1872 -224 1648 -224
WIRE 256 -192 256 -224
WIRE 256 -192 80 -192
WIRE 272 -192 256 -192
WIRE 272 -160 272 -192
WIRE 976 -160 976 -224
WIRE 1120 -160 1120 -224
WIRE 1792 -160 1664 -160
WIRE 80 -128 80 -192
WIRE 1664 -112 1664 -160
WIRE 1360 -64 1328 -64
WIRE 1440 -64 1424 -64
WIRE 1504 -64 1440 -64
WIRE 1616 -64 1584 -64
WIRE 144 -48 80 -48
WIRE 368 -48 208 -48
WIRE 640 -48 368 -48
WIRE 1792 -32 1792 -160
WIRE 1120 0 1120 -80
WIRE 1328 0 1328 -64
WIRE 1328 0 1120 0
WIRE 80 32 80 -48
WIRE 976 32 976 -80
WIRE 1328 32 976 32
WIRE 1440 48 1440 16
WIRE 1440 48 1376 48
WIRE 1504 48 1440 48
WIRE 1632 48 1632 -16
WIRE 1632 48 1584 48
WIRE 1872 48 1872 -224
WIRE 1872 48 1792 48
WIRE 368 64 368 32
WIRE 480 64 432 64
WIRE 768 64 592 64
WIRE 32 80 16 80
WIRE 368 80 368 64
WIRE 640 80 640 16
WIRE 1440 80 1440 48
WIRE 272 96 272 -80
WIRE 272 96 128 96
WIRE 976 96 976 32
WIRE 1120 96 1120 0
WIRE -96 112 -96 64
WIRE 0 112 0 -272
WIRE 0 112 -16 112
WIRE 32 112 0 112
WIRE 1632 112 1632 48
WIRE 832 144 768 144
WIRE 912 144 896 144
WIRE 928 144 912 144
WIRE 1184 144 1168 144
WIRE 1248 144 1184 144
WIRE 480 160 480 64
WIRE 480 160 368 160
WIRE 496 160 480 160
WIRE 592 160 592 64
WIRE 592 160 576 160
WIRE 640 160 592 160
WIRE 1328 160 1328 32
WIRE 1360 160 1328 160
WIRE 1440 160 1424 160
WIRE 1504 160 1440 160
WIRE 1616 160 1584 160
WIRE -160 176 -160 112
WIRE 272 176 272 160
WIRE 16 192 16 80
WIRE 48 192 48 160
WIRE 48 192 16 192
WIRE 112 192 48 192
WIRE 912 240 912 144
WIRE 944 240 944 192
WIRE 1040 240 944 240
WIRE 1152 240 1152 192
WIRE 1152 240 1040 240
WIRE 1184 240 1184 144
WIRE 368 256 368 240
WIRE 480 256 480 160
WIRE 480 256 432 256
WIRE 1664 256 1664 208
WIRE 1792 256 1792 128
WIRE 1792 256 1664 256
WIRE -160 272 -160 256
WIRE 48 272 48 256
WIRE 368 304 368 256
WIRE 1040 320 912 320
WIRE 1184 320 1040 320
WIRE 640 336 640 304
FLAG -160 272 0
FLAG -96 -16 0
FLAG 48 272 0
FLAG 112 272 0
FLAG 272 176 0
FLAG 368 384 0
FLAG 640 336 0
FLAG 768 224 0
FLAG 1040 400 0
FLAG 1248 208 0
FLAG 1376 48 0
FLAG 384 -288 0
FLAG 1040 -288 0
FLAG 1648 -288 0
FLAG 1808 -368 0
FLAG 1872 -512 0
FLAG 256 -304 0
FLAG 32 -416 0
FLAG 144 -368 0
FLAG 96 -640 0
FLAG -192 -416 0
FLAG -80 -368 0
FLAG -128 -640 0
SYMBOL Misc\\signal -160 160 R0
WINDOW 123 24 132 Left 0
WINDOW 39 0 0 Left 0
SYMATTR Value2 AC 1
SYMATTR InstName V1
SYMATTR Value SINE(0 1 500)
SYMBOL cap -96 96 R90
WINDOW 0 0 32 VBottom 0
WINDOW 3 32 32 VTop 0
SYMATTR InstName C1
SYMATTR Value .01µ
SYMATTR SpiceLine V=400
SYMBOL res 0 96 R90
WINDOW 0 0 56 VBottom 0
WINDOW 3 32 56 VTop 0
SYMATTR InstName R1
SYMATTR Value 68k
SYMBOL res -112 -32 R0
SYMATTR InstName R2
SYMATTR Value 1Meg
SYMBOL Misc\\pentode 80 96 R0
SYMATTR InstName U1
SYMATTR Value X6EJ7
SYMBOL cap 32 192 R0
SYMATTR InstName C2
SYMATTR Value 10µ
SYMBOL res 96 176 R0
SYMATTR InstName R3
SYMATTR Value 470
SYMBOL res 64 -144 R0
SYMATTR InstName R4
SYMATTR Value 91k
SYMBOL cap 208 -64 R90
WINDOW 0 0 32 VBottom 0
WINDOW 3 32 32 VTop 0
SYMATTR InstName C3
SYMATTR Value .1µ
SYMATTR SpiceLine V=400
SYMBOL res 256 -176 R0
SYMATTR InstName R5
SYMATTR Value 330k
SYMBOL cap 256 96 R0
SYMATTR InstName C4
SYMATTR Value 0.1µ
SYMBOL res 352 -64 R0
WINDOW 3 46 61 Left 0
SYMATTR Value 220k
SYMATTR InstName R6
SYMBOL cap 432 48 R90
WINDOW 0 0 32 VBottom 0
WINDOW 3 -16 -5 VTop 0
SYMATTR InstName C5
SYMATTR Value .01µ
SYMATTR SpiceLine V=400
SYMBOL res 352 64 R0
WINDOW 0 35 51 Left 0
SYMATTR InstName R7
SYMATTR Value 250k
SYMBOL res 352 144 R0
WINDOW 3 39 60 Left 0
SYMATTR Value 0.001
SYMATTR InstName R8
SYMBOL cap 432 240 R90
WINDOW 0 0 32 VBottom 0
WINDOW 3 32 32 VTop 0
SYMATTR InstName C6
SYMATTR Value .047µ
SYMBOL res 352 288 R0
SYMATTR InstName R9
SYMATTR Value 220k
SYMBOL cap 624 -48 R0
SYMATTR InstName C7
SYMATTR Value .001µ
SYMBOL res 624 64 R0
SYMATTR InstName R10
SYMATTR Value 250k
SYMBOL res 624 144 R0
SYMATTR InstName R11
SYMATTR Value 0.001
SYMBOL cap 624 240 R0
SYMATTR InstName C8
SYMATTR Value .01µ
SYMBOL res 592 144 R90
WINDOW 0 0 56 VBottom 0
WINDOW 3 36 68 VTop 0
SYMATTR InstName R12
SYMATTR Value 47k
SYMBOL res 752 48 R0
SYMATTR InstName R13
SYMATTR Value .001
SYMBOL res 752 128 R0
SYMATTR InstName R14
SYMATTR Value 1Meg
SYMBOL cap 896 128 R90
WINDOW 0 0 32 VBottom 0
WINDOW 3 32 32 VTop 0
SYMATTR InstName C9
SYMATTR Value .02µ
SYMATTR SpiceLine V=400
SYMBOL Misc\\triode 976 144 R0
SYMATTR InstName U2
SYMATTR Value 6SL7
SYMBOL Misc\\triode 1120 144 M0
SYMATTR InstName U3
SYMATTR Value 6SL7
SYMBOL res 1024 224 R0
SYMATTR InstName R15
SYMATTR Value 470
SYMBOL res 896 224 R0
SYMATTR InstName R16
SYMATTR Value 470k
SYMBOL res 1168 224 R0
SYMATTR InstName R17
SYMATTR Value 470k
SYMBOL res 1024 304 R0
SYMATTR InstName R18
SYMATTR Value 22k
SYMBOL res 960 -176 R0
SYMATTR InstName R19
SYMATTR Value 100k
SYMBOL res 1104 -176 R0
SYMATTR InstName R20
SYMATTR Value 100k
SYMBOL res 784 -240 R90
WINDOW 0 0 56 VBottom 0
WINDOW 3 32 56 VTop 0
SYMATTR InstName R21
SYMATTR Value 10k
SYMBOL cap 368 -288 R0
SYMATTR InstName C10
SYMATTR Value 10µ
SYMATTR SpiceLine V=450
SYMBOL cap 1024 -288 R0
SYMATTR InstName C11
SYMATTR Value 22µ
SYMATTR SpiceLine V=450
SYMBOL res 1408 -240 R90
WINDOW 0 0 56 VBottom 0
WINDOW 3 32 56 VTop 0
SYMATTR InstName R22
SYMATTR Value 6k8
SYMATTR SpiceLine pwr=1
SYMBOL cap 1232 144 R0
WINDOW 3 35 46 Left 0
SYMATTR Value .33µ
SYMATTR InstName C12
SYMATTR SpiceLine V=100
SYMBOL cap 1424 -80 R90
WINDOW 0 0 32 VBottom 0
WINDOW 3 32 32 VTop 0
SYMATTR InstName C13
SYMATTR Value .1µ
SYMATTR SpiceLine V=400
SYMBOL cap 1424 144 R90
WINDOW 0 0 32 VBottom 0
WINDOW 3 32 32 VTop 0
SYMATTR InstName C14
SYMATTR Value .1µ
SYMATTR SpiceLine V=400
SYMBOL res 1424 -80 R0
SYMATTR InstName R23
SYMATTR Value 220k
SYMBOL res 1424 64 R0
SYMATTR InstName R24
SYMATTR Value 220k
SYMBOL res 1600 -80 R90
WINDOW 0 0 56 VBottom 0
WINDOW 3 32 56 VTop 0
SYMATTR InstName R25
SYMATTR Value 2k2
SYMBOL res 1600 144 R90
WINDOW 0 0 56 VBottom 0
WINDOW 3 32 56 VTop 0
SYMATTR InstName R26
SYMATTR Value 2k2
SYMBOL res 1600 32 R90
WINDOW 0 0 56 VBottom 0
WINDOW 3 32 56 VTop 0
SYMATTR InstName R27
SYMATTR Value 360
SYMATTR SpiceLine pwr=2
SYMBOL Misc\\triode 1664 -64 R0
SYMATTR InstName U4
SYMATTR Value NH6SN7GTB
SYMBOL Misc\\triode 1664 160 M180
SYMATTR InstName U5
SYMATTR Value NH6SN7GTB
SYMBOL cap 1632 -288 R0
SYMATTR InstName C15
SYMATTR Value 47µ
SYMATTR SpiceLine V=450
SYMBOL res 1888 -208 R180
WINDOW 0 36 76 Left 0
WINDOW 3 36 40 Left 0
SYMATTR InstName R28
SYMATTR Value 1k
SYMATTR SpiceLine pwr=5
SYMBOL cap 1872 -384 R90
WINDOW 0 0 32 VBottom 0
WINDOW 3 32 32 VTop 0
SYMATTR InstName C16
SYMATTR Value 22µ
SYMATTR SpiceLine V=450
SYMBOL voltage 1872 -528 R0
WINDOW 0 -32 56 VBottom 0
WINDOW 3 32 56 VTop 0
WINDOW 123 0 0 Left 0
WINDOW 39 0 0 Left 0
SYMATTR InstName V2
SYMATTR Value SINE(-359.3 2.3 120)
SYMBOL res 1776 -48 R0
SYMATTR InstName R29
SYMATTR Value 2500
SYMBOL res 1776 32 R0
SYMATTR InstName R30
SYMATTR Value 2500
SYMBOL voltage 256 -208 R180
WINDOW 0 24 104 Left 0
WINDOW 3 24 16 Left 0
WINDOW 123 0 0 Left 0
WINDOW 39 0 0 Left 0
SYMATTR InstName V4
SYMATTR Value 230
SYMBOL res 80 -368 R0
SYMATTR InstName R32
SYMATTR Value 2200k
SYMBOL cap 96 -432 R90
WINDOW 0 0 32 VBottom 0
WINDOW 3 32 32 VTop 0
SYMATTR InstName C17
SYMATTR Value .047µ
SYMBOL res 128 -464 R0
SYMATTR InstName R35
SYMATTR Value 1Meg
SYMBOL cap 80 -528 R0
SYMATTR InstName C19
SYMATTR Value .1µ
SYMBOL voltage 96 -528 R180
WINDOW 0 32 56 VTop 0
WINDOW 3 -32 56 Invisible 0
WINDOW 123 4 56 VTop 0
WINDOW 39 0 0 Left 0
SYMATTR InstName V5
SYMATTR Value SINE(137 115 1.33)
SYMATTR Value2 AC 1
SYMBOL res -144 -368 R0
SYMATTR InstName R39
SYMATTR Value 2200k
SYMBOL cap -128 -432 R90
WINDOW 0 0 32 VBottom 0
WINDOW 3 32 32 VTop 0
SYMATTR InstName C26
SYMATTR Value .047µ
SYMBOL res -96 -464 R0
SYMATTR InstName R40
SYMATTR Value 1Meg
SYMBOL cap -144 -528 R0
SYMATTR InstName C33
SYMATTR Value .1µ
SYMBOL voltage -128 -528 R180
WINDOW 0 32 56 VTop 0
WINDOW 3 -32 56 Invisible 0
WINDOW 123 4 56 VTop 0
WINDOW 39 0 0 Left 0
SYMATTR InstName V6
SYMATTR Value SINE(137 115 1)
SYMATTR Value2 AC 1
TEXT -32 168 Left 0 ;1 Volt
TEXT 40 -8 Left 0 ;100 Volt
TEXT 152 80 Left 0 ;50 Volt
TEXT 120 -208 Left 0 ;230 Volt
TEXT 424 176 Left 0 ;bass
TEXT 568 176 Left 0 ;treble
TEXT 1000 224 Left 0 ;43 Volts
TEXT 1648 48 Left 0 ;7.7 Volt
TEXT 80 376 Left 0 !.INC dmtriodep.inc
TEXT 744 40 Left 0 ;Volume
TEXT 160 -456 Left 0 ;Depth
TEXT -64 -456 Left 0 ;Depth
TEXT -56 -352 Left 0 ;0 to 1Meg
TEXT -212 424 Left 0 !.tran 20
