Version 4
SHEET 1 980 680
WIRE -432 192 -432 176
WIRE -432 288 -432 272
WIRE -256 64 -256 32
WIRE -128 32 -256 32
WIRE -64 320 -64 288
WIRE -64 432 -64 400
WIRE -64 544 -64 512
WIRE 0 64 -16 64
WIRE 0 112 -16 112
WIRE 32 288 16 288
WIRE 48 32 -128 32
WIRE 48 48 48 32
WIRE 112 288 32 288
WIRE 112 352 112 288
WIRE 128 448 128 400
WIRE 144 32 48 32
WIRE 160 32 144 32
WIRE 160 304 160 208
WIRE 256 32 240 32
WIRE 256 112 144 112
WIRE 256 112 256 32
WIRE 288 32 256 32
WIRE 288 48 288 32
WIRE 288 128 48 128
WIRE 288 208 160 208
WIRE 432 48 368 48
WIRE 432 128 368 128
WIRE 464 208 368 208
WIRE 464 224 464 208
WIRE 528 48 432 48
WIRE 528 96 528 48
WIRE 528 208 464 208
WIRE 528 208 528 176
WIRE 576 48 528 48
WIRE 608 48 576 48
WIRE 608 96 608 48
WIRE 608 208 528 208
WIRE 608 208 608 160
FLAG 464 224 0
FLAG 128 448 0
FLAG -256 224 0
FLAG -64 544 0
FLAG 160 208 ano
FLAG -128 32 bplus
FLAG 32 288 grid
FLAG -432 176 vsw
FLAG -432 288 0
FLAG -16 64 0
FLAG 480 64 0
FLAG 480 112 vsw
FLAG -16 112 vsw
FLAG 96 96 0
FLAG 96 48 vsw
FLAG 576 48 out
SYMBOL voltage -256 48 R0
WINDOW 123 0 0 Left 0
WINDOW 39 0 0 Left 0
WINDOW 3 -226 53 Left 0
SYMATTR InstName V1
SYMATTR Value SINE(0 500 10 0 0 -90 5.25)
SYMBOL voltage -64 304 R0
WINDOW 123 0 0 Left 0
WINDOW 39 24 132 Left 0
WINDOW 0 44 53 Left 0
SYMATTR InstName V2
SYMATTR Value PWL(0 40 .1 40 .1001 4 .2 4 .201 -32 .3 -32 .301 -68 .4 -68 .41 -104 .5 -104 .501 -32)
SYMBOL Misc\\triode_dd 160 352 R0
WINDOW 38 8 -36 Left 0
SYMATTR SpiceModel 801a
SYMATTR InstName U2
SYMBOL res 32 272 R90
WINDOW 0 0 56 VBottom 0
WINDOW 3 32 56 VTop 0
SYMATTR InstName R2
SYMATTR Value 1
SYMBOL res 272 112 R0
SYMATTR InstName R1
SYMATTR Value 400
SYMBOL res 352 112 R0
SYMATTR InstName R3
SYMATTR Value 400
SYMBOL res 512 80 R0
SYMATTR InstName R4
SYMATTR Value 10k
SYMBOL cap 592 96 R0
SYMATTR InstName C1
SYMATTR Value 5n
SYMBOL voltage -256 128 R0
WINDOW 123 0 0 Left 0
WINDOW 39 0 0 Left 0
SYMATTR InstName V3
SYMATTR Value 516
SYMBOL voltage -432 176 R0
WINDOW 123 0 0 Left 0
WINDOW 39 0 0 Left 0
SYMATTR InstName V4
SYMATTR Value PWL(0 1 .55 1 .552 -1)
SYMBOL sw 48 32 R0
WINDOW 0 -19 -40 Left 0
WINDOW 3 -28 -16 Left 0
SYMATTR InstName S1
SYMATTR Value SWIT
SYMBOL sw 432 32 M0
WINDOW 0 15 -1 Left 0
WINDOW 3 -47 -1 Left 0
SYMATTR InstName S2
SYMATTR Value SWIT
SYMBOL ind2 272 32 R0
SYMATTR InstName L1
SYMATTR Value 150
SYMATTR Type ind
SYMBOL ind2 352 32 R0
SYMATTR InstName L2
SYMATTR Value 150
SYMATTR Type ind
SYMBOL current 160 32 R270
WINDOW 0 32 40 VTop 0
WINDOW 3 33 103 VBottom 0
WINDOW 123 0 0 Left 0
WINDOW 39 0 0 Left 0
SYMATTR InstName I1
SYMATTR Value 40m
SYMBOL sw 144 16 R0
WINDOW 0 -24 -23 Left 0
WINDOW 3 -34 0 Left 0
SYMATTR InstName S3
SYMATTR Value SWIT
SYMBOL voltage -64 416 R0
WINDOW 123 0 0 Left 0
WINDOW 39 0 0 Left 0
SYMATTR InstName V5
SYMATTR Value SINE(0 {ampl} 1k .595 0 0 5)
TEXT -408 416 Left 0 !.tran 0 .6 0 1e-5
TEXT -504 -8 Left 0 !.model SWIT SW (Ron=.1 Roff=10meg Vt=0)
TEXT 216 -16 Left 0 ;Set I1 for same as quiescent current
TEXT 240 240 Left 0 !K1 L1 L2 .99995
TEXT 96 488 Left 0 !.step param ampl list 50 60 72 82 94
