Version 4
SHEET 1 1012 680
WIRE 576 -112 560 -112
WIRE 608 -112 576 -112
WIRE 656 -112 608 -112
WIRE 720 -112 656 -112
WIRE 128 16 -16 16
WIRE 224 16 128 16
WIRE 720 16 224 16
WIRE 608 80 576 80
WIRE 656 80 608 80
WIRE 720 80 656 80
WIRE 400 192 272 192
WIRE 496 272 400 272
WIRE 592 272 576 272
WIRE 720 272 592 272
WIRE 224 336 224 16
WIRE 720 336 672 336
WIRE 672 416 672 336
WIRE 672 416 224 416
FLAG 400 352 0
FLAG 592 352 0
FLAG 80 416 0
FLAG -16 96 0
FLAG 128 160 0
FLAG 496 80 0
FLAG 656 144 0
FLAG 608 144 0
FLAG 496 -112 0
FLAG 608 -48 0
FLAG 656 -48 0
SYMBOL Misc\\DIP20 864 -16 R0
SYMATTR InstName LM3875
SYMBOL res 384 176 R0
SYMATTR InstName R1
SYMATTR Value .01
SYMBOL res 384 256 R0
SYMATTR InstName R2
SYMATTR Value 25k
SYMBOL res 592 256 R90
WINDOW 0 0 56 VBottom 0
WINDOW 3 32 56 VTop 0
SYMATTR InstName R3
SYMATTR Value 1k
SYMBOL res 576 256 R0
SYMATTR InstName R4
SYMATTR Value 22k
SYMBOL res 240 400 R90
WINDOW 0 0 56 VBottom 0
WINDOW 3 32 56 VTop 0
SYMATTR InstName R5
SYMATTR Value 680
SYMBOL cap 144 400 R90
WINDOW 0 0 32 VBottom 0
WINDOW 3 32 32 VTop 0
SYMATTR InstName C1
SYMATTR Value 47µ
SYMBOL res 208 320 R0
SYMATTR InstName R6
SYMATTR Value 22k
SYMBOL res 112 0 R0
SYMATTR InstName R7
SYMATTR Value 2.7
SYMATTR SpiceLine pwr=2
SYMBOL cap 112 96 R0
SYMATTR InstName C2
SYMATTR Value .1µ
SYMBOL res -32 0 R0
SYMATTR InstName R8
SYMATTR Value 8
SYMBOL voltage 592 80 R90
WINDOW 0 -32 56 VBottom 0
WINDOW 3 32 56 VTop 0
WINDOW 123 0 0 Left 0
WINDOW 39 0 0 Left 0
SYMATTR InstName V1
SYMATTR Value -42
SYMBOL cap 640 80 R0
WINDOW 3 -5 93 Left 0
SYMATTR InstName C3
SYMATTR Value 100µ
SYMBOL cap 592 80 R0
WINDOW 0 24 13 Left 0
WINDOW 3 -3 95 Left 0
SYMATTR InstName C4
SYMATTR Value .1µ
SYMBOL voltage 592 -112 R90
WINDOW 0 -32 56 VBottom 0
WINDOW 3 32 56 VTop 0
WINDOW 123 0 0 Left 0
WINDOW 39 0 0 Left 0
SYMATTR InstName V2
SYMATTR Value 42
SYMBOL cap 592 -112 R0
WINDOW 3 -3 95 Left 0
SYMATTR InstName C5
SYMATTR Value .1µ
SYMBOL cap 640 -112 R0
WINDOW 3 -3 96 Left 0
SYMATTR InstName C6
SYMATTR Value 100µ
TEXT 272 168 Left 0 ;Audio In
TEXT -248 56 Left 0 ;Audio Out (speaker)
