Version 4
SHEET 1 880 680
WIRE 160 -80 16 -80
WIRE 400 -80 240 -80
WIRE 16 48 16 -80
WIRE 64 48 16 48
WIRE 400 48 400 -80
WIRE 400 48 288 48
WIRE 64 112 -16 112
WIRE 336 112 288 112
WIRE -224 176 -304 176
WIRE -112 176 -144 176
WIRE 64 176 -112 176
WIRE 368 176 288 176
WIRE 64 240 -16 240
WIRE 320 240 288 240
WIRE 416 240 384 240
WIRE 496 240 416 240
WIRE 576 240 560 240
FLAG -304 256 0
FLAG -16 240 0
FLAG 528 176 0
FLAG 416 320 0
FLAG -16 112 0
FLAG 576 320 0
FLAG -112 256 0
SYMBOL voltage -304 160 R0
WINDOW 123 0 0 Left 0
WINDOW 39 0 0 Left 0
SYMATTR InstName V1
SYMATTR Value SINE(0 .35 400)
SYMBOL res -128 160 R90
WINDOW 0 0 56 VBottom 0
WINDOW 3 32 56 VTop 0
SYMATTR InstName R1
SYMATTR Value 68k
SYMBOL voltage 432 176 R270
WINDOW 123 0 0 Left 0
WINDOW 39 0 0 Left 0
SYMATTR InstName V2
SYMATTR Value 9
SYMBOL res 464 160 R90
WINDOW 0 0 56 VBottom 0
WINDOW 3 32 56 VTop 0
SYMATTR InstName R3
SYMATTR Value .1
SYMBOL cap 384 224 R90
WINDOW 0 0 32 VBottom 0
WINDOW 3 32 32 VTop 0
SYMATTR InstName C2
SYMATTR Value .05µ
SYMBOL res 400 224 R0
SYMATTR InstName R4
SYMATTR Value 10
SYMBOL Misc\\DIP8 176 144 R0
WINDOW 3 0 -116 Center 0
SYMATTR InstName U2
SYMATTR Value lm386
SYMATTR Value2 lm386
SYMBOL polcap 496 256 R270
WINDOW 0 32 32 VTop 0
WINDOW 3 0 32 VBottom 0
SYMATTR InstName C1
SYMATTR Value 250µ
SYMBOL res 560 224 R0
SYMATTR InstName R2
SYMATTR Value 8
SYMBOL res 256 -96 R90
WINDOW 0 0 56 VBottom 0
WINDOW 3 32 56 VTop 0
SYMATTR InstName R5
SYMATTR Value 500
SYMBOL res -128 160 R0
SYMATTR InstName R6
SYMATTR Value 1Meg
TEXT 488 -176 Left 0 !.inc LM386.inc
TEXT -338 492 Left 0 !.tran 1
TEXT 560 -160 Left 0 !.options plotwinsize=0
