Version 4
SHEET 1 880 980
WIRE -208 336 -208 240
WIRE -208 384 -208 336
WIRE -208 464 -208 448
WIRE -176 336 -208 336
WIRE -144 48 -144 16
WIRE -144 176 -144 128
WIRE -96 176 -144 176
WIRE -96 176 -96 112
WIRE -96 208 -96 176
WIRE -96 464 -208 464
WIRE -48 464 -96 464
WIRE -48 464 -48 432
WIRE -16 112 -96 112
WIRE -16 240 -208 240
WIRE -16 240 -16 176
WIRE 32 48 -16 48
WIRE 64 48 32 48
WIRE 64 176 -16 176
WIRE 96 336 80 336
WIRE 128 496 128 304
WIRE 128 560 64 560
WIRE 144 16 -144 16
WIRE 144 112 64 112
WIRE 144 112 144 16
WIRE 144 176 64 176
WIRE 176 720 176 704
WIRE 208 208 -96 208
WIRE 208 208 208 112
WIRE 240 112 208 112
WIRE 240 208 240 176
WIRE 240 304 128 304
WIRE 240 304 240 272
WIRE 240 336 240 304
WIRE 240 432 240 400
WIRE 240 464 240 432
WIRE 240 560 240 528
WIRE 240 640 176 640
WIRE 240 672 240 640
WIRE 256 752 240 752
WIRE 320 16 144 16
WIRE 320 112 320 16
WIRE 320 176 240 176
WIRE 320 304 240 304
WIRE 320 432 240 432
WIRE 320 560 240 560
WIRE 320 640 240 640
WIRE 320 640 320 624
WIRE 320 704 320 640
WIRE 320 880 96 880
WIRE 400 112 320 112
WIRE 400 144 400 112
WIRE 400 240 320 240
WIRE 400 240 400 208
WIRE 400 272 400 240
WIRE 400 368 320 368
WIRE 400 368 400 336
WIRE 400 400 400 368
WIRE 400 496 320 496
WIRE 400 496 400 464
WIRE 400 800 320 800
WIRE 400 928 400 880
FLAG 64 496 0
FLAG 176 720 0
FLAG 240 816 0
FLAG 32 48 0
FLAG -96 464 0
SYMBOL voltage -144 32 R0
WINDOW 123 0 0 Left 0
WINDOW 39 24 132 Left 0
SYMATTR InstName V1
SYMATTR Value SINE(0 16 60)
SYMBOL diode -32 48 R0
WINDOW 3 24 28 Left 0
SYMATTR Value 1N4007
SYMATTR InstName D1
SYMBOL diode 48 48 R0
WINDOW 3 24 28 Left 0
SYMATTR Value 1N4007
SYMATTR InstName D2
SYMBOL diode -32 112 R0
WINDOW 3 24 28 Left 0
SYMATTR Value 1N4007
SYMATTR InstName D3
SYMBOL diode 48 112 R0
WINDOW 3 -54 32 Left 0
SYMATTR Value 1N4007
SYMATTR InstName D4
SYMBOL cap 128 112 R0
WINDOW 3 24 36 Left 0
SYMATTR Value .05µ
SYMATTR InstName C1
SYMBOL diode 304 112 R0
WINDOW 3 24 28 Left 0
SYMATTR Value 1N4007
SYMATTR InstName D5
SYMBOL diode 304 176 R0
WINDOW 3 24 28 Left 0
SYMATTR Value 1N4007
SYMATTR InstName D6
SYMBOL diode 304 240 R0
WINDOW 3 24 28 Left 0
SYMATTR Value 1N4007
SYMATTR InstName D7
SYMBOL diode 304 304 R0
WINDOW 3 24 28 Left 0
SYMATTR Value 1N4007
SYMATTR InstName D8
SYMBOL diode 304 368 R0
WINDOW 3 24 28 Left 0
SYMATTR Value 1N4007
SYMATTR InstName D9
SYMBOL diode 304 432 R0
WINDOW 3 24 28 Left 0
SYMATTR Value 1N914
SYMATTR InstName D10
SYMBOL diode 304 496 R0
WINDOW 3 24 28 Left 0
SYMATTR Value 1N4007
SYMATTR InstName D11
SYMBOL diode 304 560 R0
WINDOW 3 24 28 Left 0
SYMATTR Value 1N4007
SYMATTR InstName D12
SYMBOL cap 384 144 R0
SYMATTR InstName C2
SYMATTR Value 220µ
SYMBOL cap 224 112 R0
SYMATTR InstName C3
SYMATTR Value 220µ
SYMBOL cap 384 272 R0
SYMATTR InstName C4
SYMATTR Value 47µ
SYMBOL cap 384 400 R0
SYMATTR InstName C5
SYMATTR Value 47µ
SYMBOL cap 224 336 R0
SYMATTR InstName C6
SYMATTR Value 47µ
SYMBOL cap 224 208 R0
SYMATTR InstName C7
SYMATTR Value 220µ
SYMBOL cap 224 464 R0
SYMATTR InstName C8
SYMATTR Value 47µ
SYMBOL npn 256 704 R0
SYMATTR InstName Q1
SYMATTR Value MPSA42
SYMBOL res 224 656 R0
SYMATTR InstName R1
SYMATTR Value 100k
SYMATTR SpiceLine tol=5
SYMBOL cap 48 496 R0
SYMATTR InstName C9
SYMATTR Value 47µ
SYMBOL diode 112 496 R0
SYMATTR InstName D13
SYMATTR Value 1N4007
SYMBOL res 304 784 R0
SYMATTR InstName R2
SYMATTR Value 100K
SYMBOL res 384 784 R0
SYMATTR InstName R3
SYMATTR Value 100K
SYMBOL cap 224 752 R0
SYMATTR InstName C10
SYMATTR Value 22µ
SYMBOL cap 160 640 R0
SYMATTR InstName C11
SYMATTR Value 22µ
SYMBOL cap -224 384 R0
SYMATTR InstName C12
SYMATTR Value 2200µ
SYMBOL 7812 -48 336 R0
SYMATTR InstName U1
TEXT -202 750 Left 0 !.tran 5
