Version 4
SHEET 1 5384 24476
WIRE -400 -1200 -448 -1200
WIRE -288 -1200 -400 -1200
WIRE -128 -1200 -224 -1200
WIRE 1136 -1184 1120 -1184
WIRE 1216 -1184 1200 -1184
WIRE 1328 -1184 1296 -1184
WIRE 1520 -1184 1328 -1184
WIRE 1616 -1184 1520 -1184
WIRE 1744 -1184 1616 -1184
WIRE 1840 -1184 1744 -1184
WIRE 1440 -1168 1408 -1168
WIRE 1200 -1152 1200 -1184
WIRE 1328 -1152 1328 -1184
WIRE 0 -1136 -32 -1136
WIRE -288 -1120 -400 -1120
WIRE -128 -1120 -128 -1200
WIRE 0 -1120 0 -1136
WIRE 128 -1120 96 -1120
WIRE 1616 -1104 1520 -1104
WIRE 1840 -1104 1744 -1104
WIRE 1328 -1088 1200 -1088
WIRE 1408 -1088 1328 -1088
WIRE 1520 -1072 1520 -1104
WIRE 1744 -1072 1744 -1104
WIRE -288 -1040 -288 -1056
WIRE -288 -1040 -400 -1040
WIRE -240 -1040 -288 -1040
WIRE -128 -1040 -160 -1040
WIRE -32 -1040 -32 -1136
WIRE -32 -1040 -128 -1040
WIRE 96 -1040 96 -1120
WIRE 96 -1040 0 -1040
WIRE 240 -1040 128 -1040
WIRE 1200 -1040 1200 -1088
WIRE -288 -1024 -288 -1040
WIRE 1696 -1024 1616 -1024
WIRE -720 -1008 -880 -1008
WIRE -704 -1008 -720 -1008
WIRE -624 -1008 -640 -1008
WIRE -608 -1008 -624 -1008
WIRE -528 -1008 -544 -1008
WIRE -512 -1008 -528 -1008
WIRE -448 -1008 -448 -1200
WIRE 576 -992 480 -992
WIRE 688 -992 576 -992
WIRE 336 -976 336 -992
WIRE 1440 -976 1440 -1168
WIRE 1696 -976 1696 -1024
WIRE 1696 -976 1440 -976
WIRE 1840 -976 1840 -1024
WIRE 1840 -976 1696 -976
WIRE -720 -960 -720 -1008
WIRE -624 -960 -624 -1008
WIRE -528 -960 -528 -1008
WIRE -288 -960 -400 -960
WIRE -128 -944 -128 -960
WIRE 688 -944 688 -992
WIRE 1040 -928 1040 -1184
WIRE 1456 -928 1040 -928
WIRE 384 -912 336 -912
WIRE 576 -912 384 -912
WIRE -624 -880 -720 -880
WIRE -528 -880 -624 -880
WIRE -400 -880 -528 -880
WIRE -128 -880 -400 -880
WIRE 0 -880 0 -960
WIRE 0 -880 -128 -880
WIRE 0 -864 0 -880
WIRE 1456 -864 1456 -928
WIRE 1456 -864 1120 -864
WIRE 576 -832 480 -832
WIRE 688 -832 688 -864
WIRE 688 -832 576 -832
WIRE 1328 -832 1232 -832
WIRE 1040 -800 1040 -864
WIRE 1152 -800 1152 -832
WIRE 1328 -720 1328 -832
WIRE 1456 -720 1456 -864
WIRE 352 -672 352 -688
WIRE 384 -672 384 -832
WIRE 384 -672 352 -672
WIRE 400 -672 384 -672
WIRE 544 -672 544 -688
WIRE 544 -672 480 -672
WIRE 576 -672 544 -672
WIRE 688 -672 688 -688
WIRE 688 -672 656 -672
WIRE 704 -672 688 -672
WIRE 832 -672 832 -688
WIRE 832 -672 784 -672
WIRE 848 -672 832 -672
WIRE 960 -672 960 -688
WIRE 960 -672 928 -672
WIRE 1008 -672 1008 -704
WIRE 1008 -672 960 -672
WIRE 1120 -672 1120 -704
WIRE 1120 -672 1008 -672
WIRE -2464 -656 -2544 -656
WIRE -1936 -656 -2464 -656
WIRE -1792 -656 -1936 -656
WIRE -1680 -656 -1712 -656
WIRE -1616 -656 -1680 -656
WIRE -1424 -656 -1536 -656
WIRE -976 -656 -1424 -656
WIRE -32 -608 -32 -1040
WIRE -976 -528 -976 -656
WIRE -960 -528 -976 -528
WIRE -880 -528 -880 -1008
WIRE -880 -528 -896 -528
WIRE -1936 -512 -1936 -656
WIRE -1840 -512 -1936 -512
WIRE -1936 -496 -1936 -512
WIRE -976 -496 -976 -528
WIRE 128 -496 128 -960
WIRE 128 -496 -144 -496
WIRE -336 -464 -336 -480
WIRE -240 -464 -336 -464
WIRE -384 -448 -400 -448
WIRE -2176 -432 -2192 -432
WIRE -2032 -432 -2176 -432
WIRE -1888 -432 -1984 -432
WIRE -1264 -432 -1584 -432
WIRE -1216 -432 -1264 -432
WIRE -1072 -432 -1216 -432
WIRE -928 -432 -1008 -432
WIRE -336 -432 -336 -464
WIRE -128 -432 -144 -432
WIRE -1840 -400 -1840 -512
WIRE -1984 -384 -1984 -432
WIRE -1984 -384 -2080 -384
WIRE -1008 -384 -1008 -432
WIRE -1008 -384 -1152 -384
WIRE -464 -368 -464 -448
WIRE -384 -368 -384 -448
WIRE 0 -368 -16 -368
WIRE 80 -368 0 -368
WIRE 240 -368 240 -1040
WIRE 496 -368 240 -368
WIRE 752 -368 560 -368
WIRE -656 -352 -656 -608
WIRE -2192 -336 -2192 -432
WIRE -2176 -336 -2192 -336
WIRE -2080 -336 -2080 -384
WIRE -2080 -336 -2176 -336
WIRE -2032 -336 -2032 -432
WIRE -1888 -336 -2032 -336
WIRE -1840 -336 -1888 -336
WIRE -1744 -336 -1840 -336
WIRE -1584 -336 -1584 -432
WIRE -1584 -336 -1664 -336
WIRE -1264 -336 -1264 -432
WIRE -1216 -336 -1264 -336
WIRE -1152 -336 -1152 -384
WIRE -1152 -336 -1216 -336
WIRE -1072 -336 -1072 -432
WIRE -928 -336 -1072 -336
WIRE -2464 -320 -2464 -576
WIRE -2464 -320 -2480 -320
WIRE -1424 -320 -1424 -576
WIRE -1424 -320 -1456 -320
WIRE 560 -320 560 -368
WIRE 560 -320 352 -320
WIRE 1328 -320 1152 -320
WIRE 1712 -320 1456 -320
WIRE 352 -288 352 -320
WIRE 912 -288 480 -288
WIRE -576 -272 -656 -272
WIRE -496 -272 -576 -272
WIRE -384 -272 -416 -272
WIRE -64 -272 -96 -272
WIRE 912 -272 912 -288
WIRE 928 -272 912 -272
WIRE 1008 -272 992 -272
WIRE -2464 -256 -2464 -320
WIRE -2416 -256 -2464 -256
WIRE -2320 -256 -2336 -256
WIRE -2112 -256 -2320 -256
WIRE -1424 -256 -1424 -320
WIRE -1408 -256 -1424 -256
WIRE -1232 -256 -1328 -256
WIRE -1152 -256 -1232 -256
WIRE 656 -256 592 -256
WIRE 912 -256 912 -272
WIRE 1008 -256 1008 -272
WIRE 1712 -256 1712 -320
WIRE 1744 -256 1712 -256
WIRE -1232 -240 -1232 -256
WIRE 656 -240 656 -256
WIRE 752 -240 752 -368
WIRE 1456 -240 1456 -320
WIRE 2128 -240 2064 -240
WIRE 560 -224 272 -224
WIRE 2128 -224 2128 -240
WIRE 272 -208 272 -224
WIRE 560 -208 560 -224
WIRE 592 -208 592 -256
WIRE 592 -208 560 -208
WIRE -320 -192 -352 -192
WIRE -64 -192 -64 -208
WIRE -64 -192 -96 -192
WIRE 1680 -192 1632 -192
WIRE 1744 -192 1680 -192
WIRE 2064 -192 2064 -240
WIRE 2064 -192 1968 -192
WIRE -576 -176 -576 -272
WIRE 1088 -176 1008 -176
WIRE 1152 -176 1152 -320
WIRE 1152 -176 1088 -176
WIRE -1584 -160 -1584 -336
WIRE -1536 -160 -1584 -160
WIRE -1232 -160 -1296 -160
WIRE -1216 -160 -1232 -160
WIRE 752 -160 656 -160
WIRE 912 -160 912 -176
WIRE 912 -160 864 -160
WIRE 944 -160 912 -160
WIRE 1248 -160 1232 -160
WIRE 1280 -160 1248 -160
WIRE 1392 -160 1392 -176
WIRE 1392 -160 1360 -160
WIRE 1424 -160 1392 -160
WIRE 1536 -160 1504 -160
WIRE 1552 -160 1536 -160
WIRE -2544 -144 -2544 -656
WIRE -2304 -144 -2544 -144
WIRE -2192 -144 -2240 -144
WIRE -2176 -144 -2192 -144
WIRE -2048 -144 -2112 -144
WIRE -2032 -144 -2048 -144
WIRE -1952 -144 -1952 -176
WIRE -1952 -144 -1968 -144
WIRE 912 -144 912 -160
WIRE 1088 -144 1008 -144
WIRE 1152 -144 1088 -144
WIRE 1392 -144 1392 -160
WIRE -1296 -128 -1296 -160
WIRE 1744 -128 1712 -128
WIRE 2048 -128 1968 -128
WIRE 2096 -128 2048 -128
WIRE -176 -112 -320 -112
WIRE -144 -112 -144 -128
WIRE -144 -112 -176 -112
WIRE -48 -112 -48 -432
WIRE -48 -112 -144 -112
WIRE -1424 -96 -1424 -256
WIRE -656 -96 -656 -192
WIRE -176 -96 -176 -112
WIRE -1584 -80 -1584 -96
WIRE -1536 -80 -1584 -80
WIRE 752 -80 720 -80
WIRE 800 -80 800 -160
WIRE 800 -80 752 -80
WIRE -2176 -64 -2192 -64
WIRE -2032 -64 -2048 -64
WIRE 752 -64 752 -80
WIRE 928 -64 912 -64
WIRE 1008 -64 992 -64
WIRE 1248 -64 1216 -64
WIRE -1584 -32 -1584 -80
WIRE -1488 -32 -1584 -32
WIRE -1424 -32 -1488 -32
WIRE -1296 -32 -1296 -64
WIRE -1296 -32 -1424 -32
WIRE -1072 -32 -1296 -32
WIRE -992 -32 -992 -176
WIRE -576 -32 -576 -96
WIRE -576 -32 -656 -32
WIRE -464 -32 -464 -368
WIRE -464 -32 -576 -32
WIRE -352 -32 -464 -32
WIRE -176 -32 -352 -32
WIRE -96 -32 -96 -192
WIRE -96 -32 -176 -32
WIRE 0 -32 0 -288
WIRE 0 -32 -96 -32
WIRE -2320 -16 -2320 -256
WIRE -1488 -16 -1488 -32
WIRE -352 -16 -352 -32
WIRE -2464 0 -2464 -256
WIRE 336 0 336 -32
WIRE 656 0 656 -80
WIRE 656 0 336 0
WIRE 1088 0 1088 -64
WIRE 1152 16 1152 -144
WIRE 1232 16 1152 16
WIRE 272 32 272 -112
WIRE 912 32 912 -64
WIRE 912 32 272 32
WIRE -2368 64 -2464 64
WIRE -2320 64 -2368 64
WIRE -2176 64 -2176 16
WIRE -2176 64 -2320 64
WIRE -2032 64 -2032 16
WIRE -2032 64 -2176 64
WIRE -1952 64 -1952 -64
WIRE -1952 64 -2032 64
WIRE -2368 80 -2368 64
WIRE -1296 80 -1296 -32
WIRE -1216 80 -1216 -160
WIRE -416 80 -416 -192
WIRE -992 112 -992 32
WIRE 1472 112 1472 16
WIRE 1536 112 1536 -64
WIRE 80 160 80 -368
WIRE 80 160 0 160
WIRE 1216 176 1216 -64
WIRE 1712 176 1712 -128
WIRE 1712 176 1216 176
FLAG 1456 -640 0
FLAG 960 -688 B1
FLAG 832 -688 B2
FLAG 688 -688 B3
FLAG 544 -688 B4
FLAG 1328 -640 0
FLAG 0 -864 0
FLAG 384 -992 0
FLAG 336 -992 0
FLAG 352 -688 B5
FLAG -144 -128 B3
FLAG -352 -16 0
FLAG -416 160 0
FLAG -144 160 0
FLAG 1200 -1040 0
FLAG 1744 -1072 V-1
FLAG 1520 -1072 V-2
FLAG 2048 -48 0
FLAG 1632 -192 B1
FLAG 1680 -256 0
FLAG 1088 -256 V-1
FLAG 1088 0 V-2
FLAG 1232 -160 a
FLAG 1552 -160 b
FLAG 1392 -144 c
FLAG 1392 -176 0
FLAG 752 -64 0
FLAG 944 -160 B2
FLAG -1456 -320 B4
FLAG -1488 -16 0
FLAG -1072 112 0
FLAG -2480 -320 B5
FLAG -2368 80 0
FLAG -1680 -592 0
SYMBOL res 672 -688 R90
WINDOW 0 0 56 VBottom 0
WINDOW 3 32 56 VTop 0
SYMATTR InstName R13
SYMATTR Value 1k
SYMATTR SpiceLine pwr=1
SYMBOL res 800 -688 R90
WINDOW 0 0 56 VBottom 0
WINDOW 3 32 56 VTop 0
SYMATTR InstName R14
SYMATTR Value 1k
SYMBOL Misc\\Diode 1040 -752 R0
WINDOW 0 14 53 Left 0
SYMATTR InstName U1
SYMATTR Value ""
SYMATTR SpiceModel 5Y3GT
SYMBOL voltage 1456 -736 R0
WINDOW 0 -32 56 VBottom 0
WINDOW 3 32 56 VTop 0
WINDOW 123 0 0 Left 0
WINDOW 39 0 0 Left 0
SYMATTR InstName V3
SYMATTR Value SINE(0 424 60)
SYMBOL res 1136 -880 R90
WINDOW 0 0 56 VBottom 0
WINDOW 3 32 56 VTop 0
SYMATTR InstName R17
SYMATTR Value 120
SYMATTR SpiceLine pwr=2
SYMBOL res 944 -688 R90
WINDOW 0 0 56 VBottom 0
WINDOW 3 32 56 VTop 0
SYMATTR InstName R22
SYMATTR Value 1k
SYMBOL res 1136 -848 M90
WINDOW 0 0 56 VBottom 0
WINDOW 3 32 82 VTop 0
SYMATTR InstName R23
SYMATTR Value 120
SYMATTR SpiceLine pwr=2
SYMBOL Misc\\Diode 1152 -752 R0
WINDOW 0 11 53 Left 0
SYMATTR InstName U4
SYMATTR Value ""
SYMATTR SpiceModel 5Y3GT
SYMBOL voltage 1328 -624 R180
WINDOW 0 -32 56 VBottom 0
WINDOW 3 32 56 VTop 0
WINDOW 123 0 0 Left 0
WINDOW 39 0 0 Left 0
SYMATTR InstName V4
SYMATTR Value SINE(0 424 60)
SYMBOL res -416 -1216 R0
SYMATTR InstName R26
SYMATTR Value 100k
SYMBOL res -416 -1136 R0
SYMATTR InstName R27
SYMATTR Value 800k
SYMBOL res -416 -976 R0
SYMATTR InstName R28
SYMATTR Value 10k
SYMBOL cap -304 -1024 R0
SYMATTR InstName C9
SYMATTR Value 4.7n
SYMBOL cap -304 -1120 R0
WINDOW 0 42 22 Left 0
SYMATTR InstName C10
SYMATTR Value 470p
SYMBOL res -416 -1056 R0
SYMATTR InstName R29
SYMATTR Value 200k
SYMBOL res -144 -1056 R90
WINDOW 0 0 56 VBottom 0
WINDOW 3 32 56 VTop 0
SYMATTR InstName R30
SYMATTR Value 180k
SYMBOL res -144 -1056 R0
SYMATTR InstName R31
SYMATTR Value 170k
SYMBOL res -144 -1136 R0
SYMATTR InstName R32
SYMATTR Value 300k
SYMBOL cap -224 -1216 R90
WINDOW 0 0 32 VBottom 0
WINDOW 3 32 32 VTop 0
SYMATTR InstName C11
SYMATTR Value 330p
SYMBOL cap -144 -944 R0
WINDOW 3 46 53 Left 0
SYMATTR Value 3.3n
SYMATTR InstName C12
SYMBOL res -16 -1056 R0
SYMATTR InstName R33
SYMATTR Value 1Meg
SYMBOL res -16 -1136 R0
SYMATTR InstName R34
SYMATTR Value 0.001k
SYMBOL cap -640 -1024 R90
WINDOW 0 0 32 VBottom 0
WINDOW 3 32 32 VTop 0
SYMATTR InstName C20
SYMATTR Value .047µ
SYMBOL cap -544 -1024 R90
WINDOW 0 0 32 VBottom 0
WINDOW 3 32 32 VTop 0
SYMATTR InstName C21
SYMATTR Value .047µ
SYMBOL cap -448 -1024 R90
WINDOW 0 -9 35 VBottom 0
WINDOW 3 32 32 VTop 0
SYMATTR InstName C22
SYMATTR Value .047µ
SYMBOL res -736 -976 R0
SYMATTR InstName R49
SYMATTR Value 1Meg
SYMBOL res -640 -976 R0
SYMATTR InstName R50
SYMATTR Value 1Meg
SYMBOL res -544 -976 R0
SYMATTR InstName R51
SYMATTR Value 1Meg
SYMBOL voltage 688 -960 R0
WINDOW 123 0 0 Left 0
WINDOW 39 0 0 Left 0
SYMATTR InstName V2
SYMATTR Value SINE(0 6.3 60)
SYMBOL res 368 -928 R0
SYMATTR InstName R44
SYMATTR Value 270k
SYMBOL res 560 -1008 R0
SYMATTR InstName R45
SYMATTR Value 100
SYMBOL res 560 -928 R0
SYMATTR InstName R46
SYMATTR Value 100
SYMBOL res 368 -1008 R0
SYMATTR InstName R47
SYMATTR Value 47k
SYMBOL polcap 352 -912 R180
WINDOW 0 24 57 Left 0
WINDOW 3 24 8 Left 0
SYMATTR InstName C16
SYMATTR Value 22µ
SYMATTR SpiceLine V=100
SYMBOL res 112 -1136 R0
SYMATTR InstName R18
SYMATTR Value 250k
SYMBOL res 112 -1056 R0
SYMATTR InstName R20
SYMATTR Value 250k
SYMBOL Misc\\Pinout9 -240 -352 R0
SYMATTR InstName U5
SYMATTR SpiceModel dual12DW7
SYMBOL res 496 -688 R90
WINDOW 0 0 56 VBottom 0
WINDOW 3 32 56 VTop 0
SYMATTR InstName R21
SYMATTR Value 1k
SYMBOL res -672 -368 R0
SYMATTR InstName R24
SYMATTR Value 0.1
SYMBOL res -672 -288 R0
SYMATTR InstName R25
SYMATTR Value 1000k
SYMBOL res -592 -192 R0
SYMATTR InstName R48
SYMATTR Value 1Meg
SYMBOL res -336 -208 R0
SYMATTR InstName R52
SYMATTR Value 33k
SYMBOL polcap -192 -96 R0
SYMATTR InstName C7
SYMATTR Value 47µ
SYMBOL res -368 -384 R90
WINDOW 0 0 56 VBottom 0
WINDOW 3 32 56 VTop 0
SYMATTR InstName R53
SYMATTR Value 820
SYMBOL cap -352 -208 R90
WINDOW 0 0 32 VBottom 0
WINDOW 3 32 32 VTop 0
SYMATTR InstName C8
SYMATTR Value .1µ
SYMBOL res -32 -448 R90
WINDOW 0 0 56 VBottom 0
WINDOW 3 32 56 VTop 0
SYMATTR InstName R54
SYMATTR Value 220k
SYMBOL res -80 -176 R180
WINDOW 0 36 76 Left 0
WINDOW 3 36 40 Left 0
SYMATTR InstName R55
SYMATTR Value 1.2k
SYMBOL cap -128 -432 R180
WINDOW 0 24 64 Left 0
WINDOW 3 24 8 Left 0
SYMATTR InstName C13
SYMATTR Value .1µ
SYMBOL res -16 -384 R0
SYMATTR InstName R56
SYMATTR Value 1Meg
SYMBOL res 0 -384 R90
WINDOW 0 0 56 VBottom 0
WINDOW 3 32 56 VTop 0
SYMATTR InstName R57
SYMATTR Value 68k
SYMBOL cap -80 -272 R0
SYMATTR InstName C15
SYMATTR Value 3.3µ
SYMBOL cap 0 144 R90
WINDOW 0 0 32 VBottom 0
WINDOW 3 32 32 VTop 0
SYMATTR InstName C14
SYMATTR Value .1µ
SYMBOL cap -400 -464 R90
WINDOW 0 0 32 VBottom 0
WINDOW 3 32 32 VTop 0
SYMATTR InstName C19
SYMATTR Value 22µ
SYMBOL res -432 64 R0
SYMATTR InstName R58
SYMATTR Value 1925
SYMBOL voltage -48 160 R90
WINDOW 0 -32 56 VBottom 0
WINDOW 3 32 56 VTop 0
WINDOW 123 0 0 Left 0
WINDOW 39 0 0 Left 0
SYMATTR InstName V1
SYMATTR Value SINE(0 0 1500)
SYMBOL res -400 -288 R90
WINDOW 0 0 56 VBottom 0
WINDOW 3 32 56 VTop 0
SYMATTR InstName R59
SYMATTR Value 68k
SYMBOL res 1136 -1200 R90
WINDOW 0 0 56 VBottom 0
WINDOW 3 32 56 VTop 0
SYMATTR InstName R1
SYMATTR Value 130k
SYMBOL diode 1200 -1200 R90
WINDOW 0 0 32 VBottom 0
WINDOW 3 32 32 VTop 0
SYMATTR InstName D1
SYMBOL res 1312 -1200 R90
WINDOW 0 0 56 VBottom 0
WINDOW 3 32 56 VTop 0
SYMATTR InstName R2
SYMATTR Value 15k
SYMBOL polcap 1216 -1088 R180
WINDOW 0 24 57 Left 0
WINDOW 3 24 8 Left 0
SYMATTR InstName C1
SYMATTR Value 10µ
SYMATTR SpiceLine V=100
SYMBOL polcap 1344 -1088 R180
WINDOW 0 24 57 Left 0
WINDOW 3 24 8 Left 0
SYMATTR InstName C2
SYMATTR Value 10µ
SYMATTR SpiceLine V=100
SYMBOL res 1856 -1088 R180
WINDOW 0 36 76 Left 0
WINDOW 3 36 40 Left 0
SYMATTR InstName R3
SYMATTR Value 15k
SYMBOL res 1760 -1088 R180
WINDOW 0 36 76 Left 0
WINDOW 3 36 40 Left 0
SYMATTR InstName R4
SYMATTR Value 68k
SYMBOL res 1856 -1008 R180
WINDOW 0 36 76 Left 0
WINDOW 3 36 40 Left 0
SYMATTR InstName R5
SYMATTR Value 15k
SYMBOL res 1424 -1072 R180
WINDOW 0 36 76 Left 0
WINDOW 3 36 40 Left 0
SYMATTR InstName R6
SYMATTR Value 9k
SYMBOL res 1632 -1088 R180
WINDOW 0 36 76 Left 0
WINDOW 3 36 40 Left 0
SYMATTR InstName R7
SYMATTR Value 15k
SYMBOL res 1536 -1088 R180
WINDOW 0 36 76 Left 0
WINDOW 3 36 40 Left 0
SYMATTR InstName R8
SYMATTR Value 68k
SYMBOL res 1632 -1008 R180
WINDOW 0 36 76 Left 0
WINDOW 3 33 48 Left 0
SYMATTR InstName R9
SYMATTR Value 15k
SYMBOL Misc\\DIP6 1856 -160 R0
SYMATTR InstName U2
SYMATTR SpiceModel trace15
SYMBOL Misc\\Diode 2128 -176 R0
SYMATTR InstName U3
SYMATTR Value ""
SYMATTR SpiceModel VINT10
SYMBOL res 2032 -144 R0
SYMATTR InstName R10
SYMATTR Value 100Meg
SYMBOL polcap 1696 -192 R180
WINDOW 0 24 57 Left 0
WINDOW 3 24 8 Left 0
SYMATTR InstName C3
SYMATTR Value 22µ
SYMBOL res 1104 -160 R180
WINDOW 0 -43 63 Left 0
WINDOW 3 -53 38 Left 0
SYMATTR InstName R11
SYMATTR Value 100k
SYMBOL res 1104 -48 R180
WINDOW 0 -48 76 Left 0
WINDOW 3 -56 45 Left 0
SYMATTR InstName R12
SYMATTR Value 100k
SYMBOL res 1312 -336 R0
SYMATTR InstName R15
SYMATTR Value 2.2k
SYMBOL res 1216 32 R270
WINDOW 0 32 56 VTop 0
WINDOW 3 0 56 VBottom 0
SYMATTR InstName R16
SYMATTR Value 2.2k
SYMBOL res 1264 -144 R270
WINDOW 0 32 56 VTop 0
WINDOW 3 0 56 VBottom 0
SYMATTR InstName R19
SYMATTR Value 1
SYMBOL res 1520 -176 R90
WINDOW 0 0 56 VBottom 0
WINDOW 3 32 56 VTop 0
SYMATTR InstName R35
SYMATTR Value 1
SYMBOL Misc\\Pinout8 1392 -144 R0
WINDOW 0 0 -75 Center 0
SYMATTR InstName U7
SYMATTR SpiceModel dual6sn7
SYMBOL cap 560 -384 R90
WINDOW 0 0 32 VBottom 0
WINDOW 3 32 32 VTop 0
SYMATTR InstName C4
SYMATTR Value .022µ
SYMBOL res 768 -256 M0
WINDOW 0 -32 38 Left 0
WINDOW 3 -46 63 Left 0
SYMATTR InstName R36
SYMATTR Value 1Meg
SYMBOL res 672 -176 M0
WINDOW 0 40 59 Left 0
WINDOW 3 34 83 Left 0
SYMATTR InstName R37
SYMATTR Value 1Meg
SYMBOL res 672 -256 M0
SYMATTR InstName R38
SYMATTR Value 680
SYMBOL res 768 -176 M0
WINDOW 0 31 43 Left 0
WINDOW 3 29 74 Left 0
SYMATTR InstName R39
SYMATTR Value 47k
SYMBOL cap 656 -96 M90
WINDOW 0 0 32 VBottom 0
WINDOW 3 32 32 VTop 0
SYMATTR InstName C5
SYMATTR Value .1µ
SYMATTR SpiceLine V=100
SYMBOL res 928 -160 R180
WINDOW 0 36 76 Left 0
WINDOW 3 36 40 Left 0
SYMATTR InstName R40
SYMATTR Value 82k
SYMBOL res 928 -48 R180
WINDOW 0 36 76 Left 0
WINDOW 3 36 40 Left 0
SYMATTR InstName R41
SYMATTR Value 82k
SYMBOL cap 992 -288 R90
WINDOW 0 -23 34 VBottom 0
WINDOW 3 -26 33 VTop 0
SYMATTR InstName C6
SYMATTR Value .022µ
SYMBOL cap 992 -80 R90
WINDOW 0 0 32 VBottom 0
WINDOW 3 32 32 VTop 0
SYMATTR InstName C17
SYMATTR Value .022µ
SYMBOL res 1024 -160 R180
WINDOW 0 31 60 Left 0
WINDOW 3 28 28 Left 0
SYMATTR InstName R42
SYMATTR Value 220k
SYMBOL res 992 -160 R0
SYMATTR InstName R43
SYMATTR Value 220k
SYMBOL polcap 864 -176 R90
WINDOW 0 0 32 VBottom 0
WINDOW 3 32 32 VTop 0
SYMATTR InstName C23
SYMATTR Value 47µ
SYMATTR SpiceLine V=450
SYMBOL Misc\\Pinout8 416 -192 R0
WINDOW 0 5 -73 Center 0
SYMATTR InstName U8
SYMATTR SpiceModel dual6SL7
SYMBOL Misc\\Pinout9 -1072 -416 R0
SYMATTR InstName U9
SYMATTR SpiceModel EF86pinout
SYMBOL res -1408 -560 R180
WINDOW 0 36 76 Left 0
WINDOW 3 36 40 Left 0
SYMATTR InstName R60
SYMATTR Value 330k
SYMBOL res -1520 -64 R180
WINDOW 0 -29 76 Left 0
WINDOW 3 -28 46 Left 0
SYMATTR InstName R64
SYMATTR Value 1k
SYMBOL cap -976 32 R180
WINDOW 0 -54 40 Left 0
WINDOW 3 -56 15 Left 0
SYMATTR InstName C28
SYMATTR Value .01µ
SYMBOL cap -1280 -128 M0
WINDOW 3 27 47 Left 0
SYMATTR Value .1µ
SYMATTR InstName C29
SYMBOL res -976 -160 R180
WINDOW 0 36 76 Left 0
WINDOW 3 36 40 Left 0
SYMATTR InstName R67
SYMATTR Value 68k
SYMBOL res -976 -16 M270
WINDOW 0 62 51 VTop 0
WINDOW 3 61 54 VBottom 0
SYMATTR InstName R68
SYMATTR Value 1Meg
SYMBOL res -1424 -240 R270
WINDOW 0 32 56 VTop 0
WINDOW 3 0 56 VBottom 0
SYMATTR InstName R69
SYMATTR Value 820k
SYMBOL polcap -1408 -96 M0
SYMATTR InstName C30
SYMATTR Value 47µ
SYMATTR SpiceLine V=450
SYMBOL cap -1600 -160 R0
SYMATTR InstName C31
SYMATTR Value 25µ
SYMBOL res -1200 96 M270
WINDOW 3 0 56 VBottom 0
WINDOW 0 32 56 VTop 0
SYMATTR Value {b}
SYMATTR InstName R70
SYMBOL cap -896 -544 R90
WINDOW 0 0 32 VBottom 0
WINDOW 3 32 32 VTop 0
SYMATTR InstName C42
SYMATTR Value .047µ
SYMBOL res -1216 -256 M0
SYMATTR InstName R71
SYMATTR Value 150k
SYMBOL voltage -976 112 R90
WINDOW 0 26 -5 VBottom 0
WINDOW 3 49 48 VTop 0
WINDOW 123 37 -46 VBottom 0
WINDOW 39 0 0 Left 0
SYMATTR InstName V5
SYMATTR Value SINE(0 .5 1000)
SYMATTR Value2 AC 1
SYMBOL polcap -2480 0 R0
WINDOW 3 27 44 Left 0
SYMATTR Value 47µ
SYMATTR InstName C43
SYMATTR SpiceLine V=450
SYMBOL cap -2304 -128 R270
WINDOW 0 32 32 VTop 0
WINDOW 3 0 32 VBottom 0
SYMATTR InstName C44
SYMATTR Value .1µ
SYMBOL cap -2176 -128 R270
WINDOW 0 32 32 VTop 0
WINDOW 3 0 32 VBottom 0
SYMATTR InstName C45
SYMATTR Value .1µ
SYMBOL cap -2032 -128 R270
WINDOW 0 32 32 VTop 0
WINDOW 3 0 32 VBottom 0
SYMATTR InstName C46
SYMATTR Value .1µ
SYMBOL res -1968 -160 R0
SYMATTR InstName R72
SYMATTR Value 1Meg
SYMBOL res -2160 32 R180
WINDOW 0 36 76 Left 0
WINDOW 3 36 40 Left 0
SYMATTR InstName R83
SYMATTR Value 500k
SYMBOL res -2176 -48 R180
WINDOW 0 36 76 Left 0
WINDOW 3 36 40 Left 0
SYMATTR InstName R92
SYMATTR Value 470k
SYMBOL res -2032 -48 R180
WINDOW 0 36 76 Left 0
WINDOW 3 36 40 Left 0
SYMATTR InstName R93
SYMATTR Value 470
SYMBOL res -2016 32 R180
WINDOW 0 36 76 Left 0
WINDOW 3 36 40 Left 0
SYMATTR InstName R94
SYMATTR Value 1Meg
SYMBOL res -2448 -560 R180
WINDOW 0 36 76 Left 0
WINDOW 3 36 40 Left 0
SYMATTR InstName R95
SYMATTR Value 220k
SYMBOL res -2432 -240 R270
WINDOW 0 32 56 VTop 0
WINDOW 3 0 56 VBottom 0
SYMATTR InstName R96
SYMATTR Value 330k
SYMBOL res -1968 -272 R0
SYMATTR InstName R97
SYMATTR Value 68k
SYMBOL res -2304 80 R180
WINDOW 0 36 76 Left 0
WINDOW 3 36 40 Left 0
SYMATTR InstName R98
SYMATTR Value 100k
SYMBOL cap -1696 -656 R0
SYMATTR InstName C47
SYMATTR Value .047µ
SYMBOL res -1808 -640 R270
WINDOW 0 32 56 VTop 0
WINDOW 3 0 56 VBottom 0
SYMATTR InstName R99
SYMATTR Value 330k
SYMBOL res -1632 -640 R270
WINDOW 0 32 56 VTop 0
WINDOW 3 0 56 VBottom 0
SYMATTR InstName R100
SYMATTR Value 330k
SYMBOL Misc\\Pinout9 -2032 -416 R0
SYMATTR InstName U12
SYMATTR SpiceModel EF86pinout
SYMBOL cap -1856 -400 R0
SYMATTR InstName C48
SYMATTR Value .22µ
SYMBOL res -1648 -352 R90
WINDOW 0 0 56 VBottom 0
WINDOW 3 32 56 VTop 0
SYMATTR InstName R102
SYMATTR Value .001
SYMBOL cap -672 -96 R0
SYMATTR InstName C18
SYMATTR Value 10µ
TEXT 992 704 Left 0 !.SUBCKT TRIO1 A G C\nB1 A C I={G}*(1+V(G,C)/({B}-(V(G,C)/1000)))*(V(G,C)+((V(A,C)+{Vc})/{MU}))**1.5\n.ENDS
TEXT 992 800 Left 0 !.SUBCKT Igrid G1 C\n* Courant grille\nB4 6 0 V=IF(V(G1,C)>0,{ALPHA}*V(G1,C)**1.5,{BETA}/-(V(G1,C)-.1))\nB5 G1 C I=V(6,0)\n.ENDS
TEXT 992 968 Left 0 !* 5Y3  -  DH full-wave power rectifier (125mA)\n* Data from GE 5Y3GT datasheet - traced on 09-09-01 by AF\n.subckt 5Y3GT  P K\nGP  P  K  VALUE={2.69E-4*(PWR(V(P,K),1.5)+PWRS(V(P,K),1.5))/2}\n* Child-Langmuir law: mean fit error 1.15597 mA\n*   Bp  P K  I=(0.3533050537m)*uramp(V(P,K))^1.5\n* Child-Langmuir law with contact potential: mean fit error 0.958542 mA\n*    Bp  P K  I=(0.3560945008m)*uramp(V(P,K)+(-0.4420163009))^1.5\n* Perugini model: mean fit error 0.656689 mA\n*   Bp  P K  I=((0.3169037014m)+(5.675621737e-05m)*V(P,K))*uramp(V(P,K)+(0.6363978284))^(1.51803242)\n.ends 5Y3
TEXT -832 344 Left 0 !.SUBCKT VINT10 A B\nR_RL          A       $N_0002  7.5  \nR_RD1         $N_0002 $N_0003  12.5  \nL_LD1         $N_0003 $N_0002  20mH  \nC_CD1         $N_0002 $N_0003  195u  \nR_RD2         $N_0003 $N_0004  0.5  \nC_CD2         $N_0003 $N_0004  50u  \nL_LD2         $N_0004 $N_0003  100uH  \nL_LD3         B       $N_0004  120uH  \nR_RD3                 B       $N_0004  20\n.ENDS
TEXT -1344 472 Left 0 !.SUBCKT DN2540 1 2 3 4 \n*\n* NODE 1 = DRAIN\n* NODE 2 = GATE\n* NODE 3 = SOURCE\n* NODE 4 = BODY\n*\nMOS1 11 2 3 4 ND_DMOS  L=2.5E-06  W=58E-3  \nJFET 1 3 11 JMOD 1   \nDBODY 4 1 DMOS \nR 1 11 1E+05 \n*\n.MODEL ND_DMOS NMOS \n+ LEVEL=3 RS=1.05 NSUB=5.0E14 DELTA=0.1 \n+ KAPPA=0.20 TPG=1 CGDO=3.1716E-10 RD=11 VTO=-1.50 VMAX=1.0E7 \n+ ETA=0.0223089 NFS=6.6E10 TOX=725E-10 LD=1.698E-9 UO=862.425 \n+ XJ=6.4666E-7 THETA=1.0E-5 CGSO=2.50E-9 L=4.0E-6 W=59E-3\n*\n.MODEL DMOS D \n+ IS=5.831E-13   N=1.027      RS=4.8 \n+ BV=400         IBV=0.001 \n*\n.MODEL JMOD NJF \n+ VTO=-2.4       BETA=0.3248  IS=1E-12 \n+ RD=4.45        LAMBDA=0 \n.ENDS
TEXT 488 840 Left 0 !.SUBCKT trace15 1 2 3 4 5 6\n*\n* Primary\n*\nLleak1    1    20   2mH\nLpri1       20  21   150H\nRpri1       21  2     186\nCpri1       1    2     120p\nLleak2    2    22    2mH\nLpri2       22  23    150H\nRpri2      23   3      201\nCpri2       2     3     120p\n*\n* Secondary\n*\nLleak4    4    27    17uH\nLsec2     27  28    0.5H\nRsec2    28    5     1.13\n \nKcoup   Lpri1 LPri2 Lsec2 1.0\n.ENDS
TEXT 1000 216 Left 0 !.SUBCKT dual6SN7 1 2 3 4 5 6 7 8\n*                g"a"k"g'a'k'h1h2\nX1 2 1 3 TRIO1 G=.835m MU=19 B=44.7 Vc=9.3\nX2 1 3 Igrid ALPHA=.05m BETA=.1U\nC1 2 1 2.8p\nC2 1 3 3.4p\nC3 2 3 3.2p\nRF1 2 3 200MEG\nRF2 1 3 50MEG\nX3 5 4 6 TRIO1 G=.835m MU=19 B=44.7 Vc=9.3\nX4 4 6 Igrid ALPHA=.05m BETA=.1U\nC4 5 4 2.8p\nC5 4 6 3.4p\nC6 5 6 3.2p\nRF3 5 6 200MEG\nRF4 4 6 50MEG\n.ENDS
TEXT -2112 -1104 Left 0 !.tran 0 12 10
TEXT 1232 -1424 Left 0 ;V1 and V2 = -13v max, -16 goal.
TEXT 1504 216 Left 0 !.SUBCKT dual6SL7 1 2 3 4 5 6 7 8\n*                  g'a'k'g"a"k"h1h2 \nX1 2 1 3 TRIO1 G=.62m MU=62.7 B=7500 Vc=21.3\nX2 1 3 Igrid ALPHA=.04m BETA=.1U\nC1 2 1 3.8p\nC2 1 3 2.8p\nC3 2 3 3.2p\nRF1 2 3 200MEG\nRF2 1 3 50MEG\nX3 5 4 6 TRIO1 G=.62m MU=62.7 B=7500 Vc=21.3\nX4 4 6 Igrid ALPHA=.04m BETA=.1U\nC4 5 4 3.8p\nC5 4 6 2.8p\nC6 5 6 3.2p\nRF3 5 6 200MEG\nRF4 4 6 50MEG\n.ENDS
TEXT -400 -1280 Left 0 ;Bass\n1M
TEXT -144 -1296 Left 0 ;Treble\n500k
TEXT -400 -1328 Left 0 ;James Tone Stack
TEXT -24 -1216 Left 0 ;Volume\n1M
TEXT -1328 -840 Left 0 ;ground 2&7 to ground or to 3&8.
TEXT -384 376 Left 0 !.SUBCKT EF86pinout S E1 K H1 H2 A E2 U G\n \n*\n* Calculate reduction in mu when Vg < -3V\n*\nEmu             mu              0               VALUE={LIMIT{V(G,K),-3,999}+LIMIT{V(G,K)+3,-999,0}*0.714}\n*\n* Calculate contribution to cathode current\n*\nEat             at              0               VALUE={0.636*ATAN(V(A,K)/15)}\nEgs             gs              0               VALUE={LIMIT{V(S,K)/27.5+V(mu)*1.32+1,0,1E6}}\nEgs2            gs2             0               VALUE={PWRS(V(gs),1.5)}\nEcath           cc              0               VALUE={V(gs2)*V(at)}\n*\n* Calculate anode current\n*\nGa              A               K               VALUE={5.83E-4*V(cc)}\n*\n* Calculate screen current\n*\nEscrn           sc              0               VALUE={V(gs2)*(1.1-V(at))}\nGs              S               K               VALUE={0.5E-3*V(sc)}\n*\n* Capacitances\n*\nCg1             G               K               3.8p\nCak             A               K               5.3p\nCg1a            G               A               0.05p\n.ENDS
TEXT 88 -1184 Left 0 ;Reverb Mix\n500k
TEXT 496 208 Left 0 !.SUBCKT dual12DW7 1 2 3 4 5 6 7 8 9\n*             a"g"k"h'h'a'g'k'h"\nX1 1 2 3 TRIO1 G=.524m MU=15.2 B=49.7 Vc=9.93\nX2 2 3 Igrid ALPHA=.04m BETA=.1U\nC1 1 2 1.6p\nC2 2 3 2.5p\nC3 1 3 .45p\nRF1 1 3 200MEG\nRF2 2 3 50MEG\nX3 6 7 8 TRIO2 G=1.02m MU=90.6 B=18 Vc=50.7 k=5\nX4 7 8 Igrid ALPHA=.01m BETA=.1U\nC4 6 7 1.7p\nC5 7 8 1.6p\nC6 6 8 .46p\nRF3 6 8 200MEG\nRF4 7 8 50MEG\n.ENDS
TEXT 760 736 Left 0 !.SUBCKT TRIO2 A G C\nB1 A C I={G}*((1+V(G,C)/{B})*(V(G,C)+((V(A,C)+{Vc})/{MU}))**1.5)*(V(A,C)/(V(A,C)+{k}))\n.ENDS
TEXT -352 88 Left 0 ;makebelieve reverbtank
TEXT 1312 -1376 Left 0 ;6sn7 = -16v bias\n6bl7 = -9v bias
TEXT -2232 144 Left 0 ;R67 = Variable
TEXT -2232 120 Left 0 ;R64/R65 switch = fast/slow
TEXT -2208 88 Left 0 ;switch
TEXT -2104 88 Left 0 ;to footswitch
TEXT -2688 400 Left 0 !.SUBCKT EF86 K G S U A\n \n*\n* Calculate reduction in mu when Vg < -3V\n*\nEmu             mu              0               VALUE={LIMIT{V(G,K),-3,999}+LIMIT{V(G,K)+3,-999,0}*0.714}\n*\n* Calculate contribution to cathode current\n*\nEat             at              0               VALUE={0.636*ATAN(V(A,K)/15)}\nEgs             gs              0               VALUE={LIMIT{V(S,K)/27.5+V(mu)*1.32+1,0,1E6}}\nEgs2            gs2             0               VALUE={PWRS(V(gs),1.5)}\nEcath           cc              0               VALUE={V(gs2)*V(at)}\n*\n* Calculate anode current\n*\nGa              A               K               VALUE={5.83E-4*V(cc)}\n*\n* Calculate screen current\n*\nEscrn           sc              0               VALUE={V(gs2)*(1.1-V(at))}\nGs              S               K               VALUE={0.5E-3*V(sc)}\n*\n* Capacitances\n*\nCg1             G               K               3.8p\nCak             A               K               5.3p\nCg1a            G               A               0.05p\n.ENDS
TEXT 1776 -96 Left 0 ;Hammond 125D
TEXT 1416 -352 Left 0 ;(c-a) and (b-a) = 5ma and 5mV when 6sn7s are biased at 1.75W.
TEXT 1896 -392 Left 0 ;300V anode max
TEXT 1776 -8 Left 0 ;22.5k to 8ohm
TEXT 1488 104 Left 0 ;6V
TEXT 1208 -424 Left 0 ;36v swing is the highest before major distortion.\n40v and up make major distortion
TEXT 344 -464 Left 0 ;v=4 leads to heavy distortion on LTP\nthen equal amount on powertube.
TEXT -1272 -16 Right 0 ;depth
TEXT -1360 192 Left 0 ;pot 500k
TEXT -1112 200 Left 0 ;input
TEXT -1552 176 Left 0 !.step param b list .01 500k
TEXT -1736 -272 Left 0 ;10k pot
