Version 4
SHEET 1 1524 680
WIRE -864 -544 -1136 -544
WIRE 224 -544 -48 -544
WIRE -1328 -512 -1328 -528
WIRE -1232 -512 -1328 -512
WIRE -240 -512 -240 -528
WIRE -144 -512 -240 -512
WIRE -1376 -496 -1392 -496
WIRE -288 -496 -304 -496
WIRE -1328 -480 -1328 -512
WIRE -1120 -480 -1136 -480
WIRE -832 -480 -1040 -480
WIRE -240 -480 -240 -512
WIRE -32 -480 -48 -480
WIRE 256 -480 48 -480
WIRE -1456 -416 -1456 -496
WIRE -1376 -416 -1376 -496
WIRE -992 -416 -1008 -416
WIRE -912 -416 -992 -416
WIRE -368 -416 -368 -496
WIRE -288 -416 -288 -496
WIRE 96 -416 80 -416
WIRE 176 -416 96 -416
WIRE -1728 -400 -1728 -464
WIRE -1648 -400 -1648 -464
WIRE -640 -400 -640 -464
WIRE -560 -400 -560 -464
WIRE -1568 -320 -1648 -320
WIRE -1488 -320 -1568 -320
WIRE -1376 -320 -1408 -320
WIRE -1056 -320 -1088 -320
WIRE -480 -320 -560 -320
WIRE -400 -320 -480 -320
WIRE -288 -320 -320 -320
WIRE 32 -320 0 -320
WIRE -1312 -240 -1344 -240
WIRE -1056 -240 -1056 -256
WIRE -1056 -240 -1088 -240
WIRE -224 -240 -256 -240
WIRE 32 -240 32 -256
WIRE 32 -240 0 -240
WIRE -1568 -224 -1568 -320
WIRE -480 -224 -480 -320
WIRE -1168 -160 -1312 -160
WIRE -1040 -160 -1040 -480
WIRE -1040 -160 -1168 -160
WIRE -80 -160 -224 -160
WIRE 48 -160 48 -480
WIRE 48 -160 -80 -160
WIRE -1168 -144 -1168 -160
WIRE -80 -144 -80 -160
WIRE -1648 -80 -1648 -240
WIRE -1568 -80 -1568 -144
WIRE -1568 -80 -1648 -80
WIRE -1456 -80 -1456 -416
WIRE -1456 -80 -1568 -80
WIRE -1344 -80 -1456 -80
WIRE -1168 -80 -1344 -80
WIRE -1088 -80 -1088 -240
WIRE -1088 -80 -1168 -80
WIRE -992 -80 -992 -336
WIRE -992 -80 -1088 -80
WIRE -560 -80 -560 -240
WIRE -480 -80 -480 -144
WIRE -480 -80 -560 -80
WIRE -368 -80 -368 -416
WIRE -368 -80 -480 -80
WIRE -256 -80 -368 -80
WIRE -80 -80 -256 -80
WIRE 0 -80 0 -240
WIRE 0 -80 -80 -80
WIRE 96 -80 96 -336
WIRE 96 -80 0 -80
WIRE -1344 -64 -1344 -80
WIRE -256 -64 -256 -80
WIRE -1408 32 -1408 -240
WIRE -320 32 -320 -240
WIRE -912 112 -912 -416
WIRE -912 112 -992 112
WIRE 176 112 176 -416
WIRE 176 112 96 112
FLAG -256 -64 0
FLAG -320 112 0
FLAG -48 112 0
FLAG -640 -400 0
FLAG 256 -400 0
FLAG -1344 -64 0
FLAG -1408 112 0
FLAG -1136 112 0
FLAG -1728 -400 0
FLAG -832 -400 0
SYMBOL Misc\\Pinout9 -144 -400 R0
SYMATTR InstName U1
SYMATTR SpiceModel dual12DW7
SYMBOL res -576 -416 R0
SYMATTR InstName R1
SYMATTR Value 0.1
SYMBOL res -576 -336 R0
SYMATTR InstName R2
SYMATTR Value 1000k
SYMBOL res -496 -240 R0
SYMATTR InstName R3
SYMATTR Value 1Meg
SYMBOL res -240 -256 R0
SYMATTR InstName R4
SYMATTR Value 33k
SYMBOL polcap -96 -144 R0
SYMATTR InstName C1
SYMATTR Value 47µ
SYMBOL res -272 -432 R90
WINDOW 0 0 56 VBottom 0
WINDOW 3 32 56 VTop 0
SYMATTR InstName R5
SYMATTR Value 820
SYMBOL cap -256 -256 R90
WINDOW 0 0 32 VBottom 0
WINDOW 3 32 32 VTop 0
SYMATTR InstName C2
SYMATTR Value .1µ
SYMBOL res 64 -496 R90
WINDOW 0 0 56 VBottom 0
WINDOW 3 32 56 VTop 0
SYMATTR InstName R6
SYMATTR Value 220k
SYMBOL res 16 -224 R180
WINDOW 0 36 76 Left 0
WINDOW 3 36 40 Left 0
SYMATTR InstName R7
SYMATTR Value 1.2k
SYMBOL cap -32 -480 R180
WINDOW 0 24 64 Left 0
WINDOW 3 24 8 Left 0
SYMATTR InstName C3
SYMATTR Value .1µ
SYMBOL res 80 -432 R0
SYMATTR InstName R8
SYMATTR Value 1Meg
SYMBOL res 96 -432 R90
WINDOW 0 0 56 VBottom 0
WINDOW 3 32 56 VTop 0
SYMATTR InstName R9
SYMATTR Value 68k
SYMBOL cap 16 -320 R0
SYMATTR InstName C4
SYMATTR Value 3.3µ
SYMBOL cap 96 96 R90
WINDOW 0 0 32 VBottom 0
WINDOW 3 32 32 VTop 0
SYMATTR InstName C5
SYMATTR Value .1µ
SYMBOL cap -304 -512 R90
WINDOW 0 0 32 VBottom 0
WINDOW 3 32 32 VTop 0
SYMATTR InstName C6
SYMATTR Value 22µ
SYMBOL res -336 16 R0
SYMATTR InstName R10
SYMATTR Value 1925
SYMBOL voltage 48 112 R90
WINDOW 0 -32 56 VBottom 0
WINDOW 3 32 56 VTop 0
WINDOW 123 0 0 Left 0
WINDOW 39 0 0 Left 0
SYMATTR InstName V1
SYMATTR Value SINE(0 .06 1500)
SYMBOL res -304 -336 R90
WINDOW 0 0 56 VBottom 0
WINDOW 3 32 56 VTop 0
SYMATTR InstName R11
SYMATTR Value 68k
SYMBOL voltage -544 -464 R90
WINDOW 0 -32 56 VBottom 0
WINDOW 3 32 56 VTop 0
WINDOW 123 0 0 Left 0
WINDOW 39 0 0 Left 0
SYMATTR InstName V2
SYMATTR Value SINE(0 1.5 1000)
SYMBOL voltage 256 -496 R0
WINDOW 123 0 0 Left 0
WINDOW 39 0 0 Left 0
SYMATTR InstName V3
SYMATTR Value 310
SYMBOL Misc\\Pinout9 -1232 -400 R0
SYMATTR InstName U2
SYMATTR SpiceModel dual12DW7
SYMBOL res -1664 -416 R0
SYMATTR InstName R12
SYMATTR Value 0.1
SYMBOL res -1664 -336 R0
SYMATTR InstName R13
SYMATTR Value 1000k
SYMBOL res -1584 -240 R0
SYMATTR InstName R14
SYMATTR Value 1Meg
SYMBOL res -1328 -256 R0
SYMATTR InstName R15
SYMATTR Value 33k
SYMBOL polcap -1184 -144 R0
SYMATTR InstName C7
SYMATTR Value 47µ
SYMBOL res -1360 -432 R90
WINDOW 0 0 56 VBottom 0
WINDOW 3 32 56 VTop 0
SYMATTR InstName R16
SYMATTR Value 820
SYMBOL cap -1344 -256 R90
WINDOW 0 0 32 VBottom 0
WINDOW 3 32 32 VTop 0
SYMATTR InstName C8
SYMATTR Value .1µ
SYMBOL res -1024 -496 R90
WINDOW 0 0 56 VBottom 0
WINDOW 3 32 56 VTop 0
SYMATTR InstName R17
SYMATTR Value 220k
SYMBOL res -1072 -224 R180
WINDOW 0 36 76 Left 0
WINDOW 3 36 40 Left 0
SYMATTR InstName R18
SYMATTR Value 1.2k
SYMBOL cap -1120 -480 R180
WINDOW 0 24 64 Left 0
WINDOW 3 24 8 Left 0
SYMATTR InstName C9
SYMATTR Value .1µ
SYMBOL res -1008 -432 R0
SYMATTR InstName R19
SYMATTR Value 1Meg
SYMBOL res -992 -432 R90
WINDOW 0 0 56 VBottom 0
WINDOW 3 32 56 VTop 0
SYMATTR InstName R20
SYMATTR Value 68k
SYMBOL cap -1072 -320 R0
SYMATTR InstName C10
SYMATTR Value 3.3µ
SYMBOL cap -992 96 R90
WINDOW 0 0 32 VBottom 0
WINDOW 3 32 32 VTop 0
SYMATTR InstName C11
SYMATTR Value .1µ
SYMBOL cap -1392 -512 R90
WINDOW 0 0 32 VBottom 0
WINDOW 3 32 32 VTop 0
SYMATTR InstName C12
SYMATTR Value 22µ
SYMBOL voltage -1040 112 R90
WINDOW 0 -32 56 VBottom 0
WINDOW 3 32 56 VTop 0
WINDOW 123 0 0 Left 0
WINDOW 39 0 0 Left 0
SYMATTR InstName V4
SYMATTR Value SINE(0 .06 1500)
SYMBOL res -1392 -336 R90
WINDOW 0 0 56 VBottom 0
WINDOW 3 32 56 VTop 0
SYMATTR InstName R22
SYMATTR Value 68k
SYMBOL voltage -1632 -464 R90
WINDOW 0 -32 56 VBottom 0
WINDOW 3 32 56 VTop 0
WINDOW 123 0 0 Left 0
WINDOW 39 0 0 Left 0
SYMATTR InstName V5
SYMATTR Value SINE(0 1.5 1000)
SYMBOL voltage -832 -496 R0
WINDOW 123 0 0 Left 0
WINDOW 39 0 0 Left 0
SYMATTR InstName V6
SYMATTR Value 310
SYMBOL ind -1424 16 R0
SYMATTR InstName L1
SYMATTR Value 1.9
TEXT -256 40 Left 0 ;makebelieve reverbtank
TEXT 488 -464 Left 0 !.SUBCKT dual12DW7 1 2 3 4 5 6 7 8 9\n*             a"g"k"h'h'a'g'k'h"\nX1 1 2 3 TRIO1 G=.524m MU=15.2 B=49.7 Vc=9.93\nX2 2 3 Igrid ALPHA=.04m BETA=.1U\nC1 1 2 1.6p\nC2 2 3 2.5p\nC3 1 3 .45p\nRF1 1 3 200MEG\nRF2 2 3 50MEG\nX3 6 7 8 TRIO2 G=1.02m MU=90.6 B=18 Vc=50.7 k=5\nX4 7 8 Igrid ALPHA=.01m BETA=.1U\nC4 6 7 1.7p\nC5 7 8 1.6p\nC6 6 8 .46p\nRF3 6 8 200MEG\nRF4 7 8 50MEG\n.ENDS
TEXT -1344 40 Left 0 ;makebelieve reverbtank
TEXT -1794 178 Left 0 !.tran 5
TEXT 480 32 Left 0 !.SUBCKT Igrid G1 C\n* Courant grille\nB4 6 0 V=IF(V(G1,C)>0,{ALPHA}*V(G1,C)**1.5,{BETA}/-(V(G1,C)-.1))\nB5 G1 C I=V(6,0)\n.ENDS
TEXT 464 192 Left 0 !.SUBCKT TRIO1 A G C\nB1 A C I={G}*(1+V(G,C)/({B}-(V(G,C)/1000)))*(V(G,C)+((V(A,C)+{Vc})/{MU}))**1.5\n.ENDS
TEXT 456 288 Left 0 !.SUBCKT TRIO2 A G C\nB1 A C I={G}*((1+V(G,C)/{B})*(V(G,C)+((V(A,C)+{Vc})/{MU}))**1.5)*(V(A,C)/(V(A,C)+{k}))\n.ENDS
