Version 4
SHEET 1 5192 24476
WIRE 1520 -864 1456 -864
WIRE 1616 -864 1600 -864
WIRE 1728 -864 1680 -864
WIRE 1744 -864 1728 -864
WIRE 1856 -864 1824 -864
WIRE 1904 -864 1856 -864
WIRE 2144 -864 2064 -864
WIRE 1728 -832 1728 -864
WIRE 1856 -832 1856 -864
WIRE 1360 -784 1328 -784
WIRE 1456 -784 1456 -864
WIRE 1456 -784 1440 -784
WIRE 1904 -768 1904 -864
WIRE 1984 -768 1984 -864
WIRE 2016 -768 1984 -768
WIRE 1360 -736 1328 -736
WIRE 1456 -736 1456 -784
WIRE 1456 -736 1440 -736
WIRE 688 -640 688 -656
WIRE 720 -640 688 -640
WIRE 896 -640 896 -656
WIRE 896 -640 800 -640
WIRE 912 -640 896 -640
WIRE 1088 -640 1088 -656
WIRE 1088 -640 992 -640
WIRE 1104 -640 1088 -640
WIRE 1264 -640 1264 -656
WIRE 1264 -640 1184 -640
WIRE 1296 -640 1264 -640
WIRE 1904 -640 1904 -768
WIRE 2144 -640 2144 -864
WIRE 2144 -640 2064 -640
WIRE 1904 -544 1904 -640
WIRE 1984 -544 1984 -640
WIRE 2016 -544 1984 -544
WIRE 640 -448 208 -448
WIRE 1456 -368 1056 -368
WIRE 1216 -320 1216 -432
WIRE 1312 -320 1216 -320
WIRE 400 -304 400 -432
WIRE 496 -304 400 -304
WIRE 1232 -304 1232 -416
WIRE 1312 -304 1232 -304
WIRE 1456 -304 1456 -368
WIRE 416 -288 416 -416
WIRE 496 -288 416 -288
WIRE 1216 -288 1216 -320
WIRE 1616 -288 1408 -288
WIRE 400 -272 400 -304
WIRE 864 -272 592 -272
WIRE 864 -240 864 -272
WIRE 1616 -240 1616 -288
WIRE 1648 -240 1616 -240
WIRE 1168 -224 1152 -224
WIRE 1200 -224 1168 -224
WIRE 1376 -224 1376 -240
WIRE 1376 -224 1280 -224
WIRE 1408 -224 1376 -224
WIRE 2032 -224 1968 -224
WIRE 208 -208 208 -448
WIRE 352 -208 288 -208
WIRE 432 -208 352 -208
WIRE 640 -208 640 -448
WIRE 1376 -208 1376 -224
WIRE 1408 -208 1408 -224
WIRE 2032 -208 2032 -224
WIRE 1584 -176 1536 -176
WIRE 1648 -176 1584 -176
WIRE 1968 -176 1968 -224
WIRE 1968 -176 1872 -176
WIRE 928 -160 928 -240
WIRE 992 -160 928 -160
WIRE 1056 -160 1056 -368
WIRE 1056 -160 992 -160
WIRE 144 -144 144 -208
WIRE 144 -144 48 -144
WIRE 768 -144 720 -144
WIRE 864 -144 864 -160
WIRE 864 -144 768 -144
WIRE 288 -128 208 -128
WIRE 992 -128 928 -128
WIRE 1088 -128 992 -128
WIRE 1456 -128 1408 -128
WIRE 1472 -128 1456 -128
WIRE 432 -112 432 -208
WIRE 640 -112 432 -112
WIRE 1648 -112 1616 -112
WIRE 1952 -112 1872 -112
WIRE 2000 -112 1952 -112
WIRE 288 -48 272 -48
WIRE 352 -48 352 -112
WIRE 352 -48 288 -48
WIRE 864 -48 864 -64
WIRE 928 -48 928 -128
WIRE 1312 -48 1312 -304
WIRE 1392 -48 1312 -48
WIRE 496 -32 496 -288
WIRE 576 -32 496 -32
WIRE 1232 -16 1232 -48
WIRE 1616 -16 1616 -112
WIRE 1616 -16 1232 -16
WIRE 416 0 416 -32
WIRE 864 0 864 -48
WIRE 864 0 416 0
WIRE 208 16 208 -48
FLAG 1456 -944 0
FLAG 1952 -32 0
FLAG 992 -240 V-1
FLAG 992 -48 V-2
FLAG 1152 -224 a
FLAG 1472 -128 b
FLAG 1376 -208 c
FLAG 1376 -240 0
FLAG 2224 -864 0
FLAG 1728 -768 0
FLAG 1856 -768 0
FLAG 2016 -768 V-1
FLAG 2016 -544 V-2
FLAG 1264 -656 B1
FLAG 1536 -176 B1
FLAG 1088 -656 B2
FLAG 720 -144 B2
FLAG 896 -656 B3
FLAG 688 -656 B4
FLAG 1584 -240 0
FLAG 768 -208 0
FLAG 208 16 0
FLAG 48 -64 0
SYMBOL cap 208 -224 R90
WINDOW 0 0 32 VBottom 0
WINDOW 3 32 32 VTop 0
SYMATTR InstName C10
SYMATTR Value .022µ
SYMBOL res 192 -224 R0
WINDOW 0 38 31 Left 0
WINDOW 3 43 54 Left 0
SYMATTR InstName R20
SYMATTR Value 1Meg
SYMBOL res 272 -144 R0
WINDOW 0 40 59 Left 0
WINDOW 3 34 83 Left 0
SYMATTR InstName R21
SYMATTR Value 1Meg
SYMBOL res 272 -224 R0
SYMATTR InstName R22
SYMATTR Value {b}
SYMBOL res 192 -144 R0
SYMATTR InstName R23
SYMATTR Value 10k
SYMBOL cap 272 -64 R90
WINDOW 0 0 32 VBottom 0
WINDOW 3 32 32 VTop 0
SYMATTR InstName C11
SYMATTR Value .1µ
SYMATTR SpiceLine V=100
SYMBOL res 880 -144 R180
WINDOW 0 36 76 Left 0
WINDOW 3 36 40 Left 0
SYMATTR InstName R24
SYMATTR Value 22k
SYMBOL res 880 -48 R180
WINDOW 0 36 76 Left 0
WINDOW 3 36 40 Left 0
SYMATTR InstName R25
SYMATTR Value 30k
SYMBOL cap 928 -256 R90
WINDOW 0 0 32 VBottom 0
WINDOW 3 -58 34 VTop 0
SYMATTR InstName C12
SYMATTR Value .022µ
SYMBOL cap 928 -64 R90
WINDOW 0 0 32 VBottom 0
WINDOW 3 32 32 VTop 0
SYMATTR InstName C13
SYMATTR Value .022µ
SYMBOL res 1008 -144 R180
WINDOW 0 -43 63 Left 0
WINDOW 3 -53 38 Left 0
SYMATTR InstName R26
SYMATTR Value 100k
SYMBOL res 1008 -32 R180
WINDOW 0 -48 76 Left 0
WINDOW 3 -56 45 Left 0
SYMATTR InstName R27
SYMATTR Value 100k
SYMBOL res 1440 -320 R0
SYMATTR InstName R28
SYMATTR Value 2.2k
SYMBOL res 1072 -112 R270
WINDOW 0 32 56 VTop 0
WINDOW 3 0 56 VBottom 0
SYMATTR InstName R29
SYMATTR Value 2.2k
SYMBOL res 816 -656 R90
WINDOW 0 0 56 VBottom 0
WINDOW 3 32 56 VTop 0
SYMATTR InstName R31
SYMATTR Value 1k
SYMATTR SpiceLine pwr=1
SYMBOL res 1008 -656 R90
WINDOW 0 0 56 VBottom 0
WINDOW 3 32 56 VTop 0
SYMATTR InstName R18
SYMATTR Value 1k
SYMBOL Misc\\Diode 1328 -688 R0
SYMATTR InstName U6
SYMATTR Value ""
SYMATTR SpiceModel 5Y3GT
SYMBOL voltage 1456 -848 R180
WINDOW 0 -32 56 VBottom 0
WINDOW 3 32 56 VTop 0
WINDOW 123 0 0 Left 0
WINDOW 39 0 0 Left 0
SYMATTR InstName V1
SYMATTR Value SINE(0 424 120)
SYMBOL Misc\\DIP6 1760 -144 R0
SYMATTR InstName U7
SYMATTR SpiceModel trace15
SYMBOL Misc\\Diode 2032 -160 R0
SYMATTR InstName U8
SYMATTR Value ""
SYMATTR SpiceModel VINT10
SYMBOL res 1936 -128 R0
SYMATTR InstName R19
SYMATTR Value 100Meg
SYMBOL res 1184 -208 R270
WINDOW 0 32 56 VTop 0
WINDOW 3 0 56 VBottom 0
SYMATTR InstName R17
SYMATTR Value 1
SYMBOL res 1392 -224 R0
SYMATTR InstName R32
SYMATTR Value 1
SYMBOL res 1456 -752 R90
WINDOW 0 0 56 VBottom 0
WINDOW 3 32 56 VTop 0
SYMATTR InstName R33
SYMATTR Value 120
SYMATTR SpiceLine pwr=2
SYMBOL res 1456 -768 M270
WINDOW 0 32 56 VTop 0
WINDOW 3 0 56 VBottom 0
SYMATTR InstName R34
SYMATTR Value 120
SYMATTR SpiceLine pwr=2
SYMBOL res 1616 -880 R90
WINDOW 0 0 56 VBottom 0
WINDOW 3 32 56 VTop 0
SYMATTR InstName R35
SYMATTR Value 180k
SYMBOL diode 1680 -880 R90
WINDOW 0 0 32 VBottom 0
WINDOW 3 32 32 VTop 0
SYMATTR InstName D1
SYMBOL res 1840 -880 R90
WINDOW 0 0 56 VBottom 0
WINDOW 3 32 56 VTop 0
SYMATTR InstName R36
SYMATTR Value 15k
SYMBOL polcap 1744 -768 R180
WINDOW 0 24 57 Left 0
WINDOW 3 24 8 Left 0
SYMATTR InstName C5
SYMATTR Value 10µ
SYMATTR SpiceLine V=100
SYMBOL polcap 1872 -768 R180
WINDOW 0 24 57 Left 0
WINDOW 3 24 8 Left 0
SYMATTR InstName C17
SYMATTR Value 10µ
SYMATTR SpiceLine V=100
SYMBOL res 2000 -880 R90
WINDOW 0 0 56 VBottom 0
WINDOW 3 32 56 VTop 0
SYMATTR InstName R37
SYMATTR Value 10k
SYMBOL res 2000 -784 R90
WINDOW 0 0 56 VBottom 0
WINDOW 3 32 56 VTop 0
SYMATTR InstName R38
SYMATTR Value 68k
SYMBOL res 2080 -880 R90
WINDOW 0 0 56 VBottom 0
WINDOW 3 32 56 VTop 0
SYMATTR InstName R39
SYMATTR Value 10k
SYMBOL res 2240 -880 R90
WINDOW 0 0 56 VBottom 0
WINDOW 3 32 56 VTop 0
SYMATTR InstName R40
SYMATTR Value 16k
SYMBOL res 2000 -656 R90
WINDOW 0 0 56 VBottom 0
WINDOW 3 32 56 VTop 0
SYMATTR InstName R41
SYMATTR Value 10k
SYMBOL res 2000 -560 R90
WINDOW 0 0 56 VBottom 0
WINDOW 3 32 56 VTop 0
SYMATTR InstName R42
SYMATTR Value 68k
SYMBOL res 2080 -656 R90
WINDOW 0 0 56 VBottom 0
WINDOW 3 32 56 VTop 0
SYMATTR InstName R43
SYMATTR Value 10k
SYMBOL polcap 784 -144 R180
WINDOW 0 24 57 Left 0
WINDOW 3 24 8 Left 0
SYMATTR InstName C4
SYMATTR Value 47µ
SYMATTR SpiceLine V=450
SYMBOL polcap 1600 -176 R180
WINDOW 0 24 57 Left 0
WINDOW 3 24 8 Left 0
SYMATTR InstName C23
SYMATTR Value 22µ
SYMBOL res 1200 -656 R90
WINDOW 0 0 56 VBottom 0
WINDOW 3 32 56 VTop 0
SYMATTR InstName R47
SYMATTR Value 1k
SYMBOL Misc\\Pinout9 1312 -208 R0
SYMATTR InstName U9
SYMATTR SpiceModel 12AU7pinout
SYMBOL Misc\\Pinout9 496 -192 R0
SYMATTR InstName U2
SYMATTR SpiceModel 12AU7pinout
SYMBOL voltage 48 -160 R0
WINDOW 123 0 0 Left 0
WINDOW 39 0 0 Left 0
SYMATTR InstName V2
SYMATTR Value SINE(0 3.5 1000)
TEXT 464 -768 Left 0 ;See ax84_MoonlightJon.pdf and October for powersupply details.
TEXT 4000 -576 Left 0 !.SUBCKT EF86 K G S U A\n \n*\n* Calculate reduction in mu when Vg < -3V\n*\nEmu             mu              0               VALUE={LIMIT{V(G,K),-3,999}+LIMIT{V(G,K)+3,-999,0}*0.714}\n*\n* Calculate contribution to cathode current\n*\nEat             at              0               VALUE={0.636*ATAN(V(A,K)/15)}\nEgs             gs              0               VALUE={LIMIT{V(S,K)/27.5+V(mu)*1.32+1,0,1E6}}\nEgs2            gs2             0               VALUE={PWRS(V(gs),1.5)}\nEcath           cc              0               VALUE={V(gs2)*V(at)}\n*\n* Calculate anode current\n*\nGa              A               K               VALUE={5.83E-4*V(cc)}\n*\n* Calculate screen current\n*\nEscrn           sc              0               VALUE={V(gs2)*(1.1-V(at))}\nGs              S               K               VALUE={0.5E-3*V(sc)}\n*\n* Capacitances\n*\nCg1             G               K               3.8p\nCak             A               K               5.3p\nCg1a            G               A               0.05p\n.ENDS
TEXT 3032 -776 Left 0 !.SUBCKT 12AU7pinout 1 2 3 4 5 6 7 8 9\n* ANODE1 G1 CAT1 nc nc ANODE2 G 2 CAT2 \nX1 1 2 3 TRIO1 G=.524m MU=15.2 B=49.7 Vc=9.93\nX2 2 3 Igrid ALPHA=.04m BETA=.1U\nC1 1 2 1.6p\nC2 2 3 2.5p\nC3 1 3 .45p\nRF1 1 3 200MEG\nRF2 2 3 50MEG\nX3 6 7 8 TRIO1 G=.524m MU=15.2 B=49.7 Vc=9.93\nX4 7 8 Igrid ALPHA=.04m BETA=.1U\nC4 6 7 1.6p\nC5 7 8 2.5p\nC6 6 8 .45p\nRF3 6 8 200MEG\nRF4 7 8 50MEG\n.ENDS
TEXT 3008 -120 Left 0 !.SUBCKT TRIO1 A G C\nB1 A C I={G}*(1+V(G,C)/({B}-(V(G,C)/1000)))*(V(G,C)+((V(A,C)+{Vc})/{MU}))**1.5\n.ENDS
TEXT 3024 -280 Left 0 !.SUBCKT Igrid G1 C\n* Courant grille\nB4 6 0 V=IF(V(G1,C)>0,{ALPHA}*V(G1,C)**1.5,{BETA}/-(V(G1,C)-.1))\nB5 G1 C I=V(6,0)\n.ENDS
TEXT 2464 184 Left 0 !.SUBCKT 12AX7 1 2 3\n* ANODE G CAT\nX1 1 2 3 TRIO2 G=1.02m MU=90.6 B=18 Vc=50.7 k=5\nX2 2 3 Igrid ALPHA=.01m BETA=.1U\nC1 1 2 1.7p\nC2 2 3 1.6p\nC3 1 3 .46p\nRF1 1 3 200MEG\nRF2 2 3 50MEG\n.ENDS
TEXT 3000 -8 Left 0 !.SUBCKT TRIO2 A G C\nB1 A C I={G}*((1+V(G,C)/{B})*(V(G,C)+((V(A,C)+{Vc})/{MU}))**1.5)*(V(A,C)/(V(A,C)+{k}))\n.ENDS
TEXT 3000 112 Left 0 !.SUBCKT TRIO3 A G C\nB1 A C I={G}*(1+(V(G,C)/({B}-(V(G,C)/{C}))))*(V(G,C)+((V(A,C)+{Vc})/{MU}))**1.5\n.ENDS
TEXT 3016 288 Left 0 !* 5Y3  -  DH full-wave power rectifier (125mA)\n* Data from GE 5Y3GT datasheet - traced on 09-09-01 by AF\n.subckt 5Y3GT  P K\nGP  P  K  VALUE={2.69E-4*(PWR(V(P,K),1.5)+PWRS(V(P,K),1.5))/2}\n* Child-Langmuir law: mean fit error 1.15597 mA\n*   Bp  P K  I=(0.3533050537m)*uramp(V(P,K))^1.5\n* Child-Langmuir law with contact potential: mean fit error 0.958542 mA\n*    Bp  P K  I=(0.3560945008m)*uramp(V(P,K)+(-0.4420163009))^1.5\n* Perugini model: mean fit error 0.656689 mA\n*   Bp  P K  I=((0.3169037014m)+(5.675621737e-05m)*V(P,K))*uramp(V(P,K)+(0.6363978284))^(1.51803242)\n.ends 5Y3
TEXT 1280 -624 Left 0 ;360
TEXT 1040 -616 Left 0 ;344
TEXT 856 -616 Left 0 ;315
TEXT 648 -608 Left 0 ;286
TEXT 200 -160 Left 0 ;0
TEXT 1680 -80 Left 0 ;Hammond 125D
TEXT 2480 -880 Left 0 !.SUBCKT VINT10 A B\nR_RL          A       $N_0002  7.5  \nR_RD1         $N_0002 $N_0003  12.5  \nL_LD1         $N_0003 $N_0002  20mH  \nC_CD1         $N_0002 $N_0003  195u  \nR_RD2         $N_0003 $N_0004  0.5  \nC_CD2         $N_0003 $N_0004  50u  \nL_LD2         $N_0004 $N_0003  100uH  \nL_LD3         B       $N_0004  120uH  \nR_RD3                 B       $N_0004  20\n.ENDS
TEXT 1632 -336 Left 0 ;(c-a) and (b-a) = 8ma and 8mV  when 12AU7s are biased at 2.75W.
TEXT 1960 -368 Left 0 ;300V anode max
TEXT 1968 224 Left 0 !.SUBCKT DN2540 1 2 3 4 \n*\n* NODE 1 = DRAIN\n* NODE 2 = GATE\n* NODE 3 = SOURCE\n* NODE 4 = BODY\n*\nMOS1 11 2 3 4 ND_DMOS  L=2.5E-06  W=58E-3  \nJFET 1 3 11 JMOD 1   \nDBODY 4 1 DMOS \nR 1 11 1E+05 \n*\n.MODEL ND_DMOS NMOS \n+ LEVEL=3 RS=1.05 NSUB=5.0E14 DELTA=0.1 \n+ KAPPA=0.20 TPG=1 CGDO=3.1716E-10 RD=11 VTO=-1.50 VMAX=1.0E7 \n+ ETA=0.0223089 NFS=6.6E10 TOX=725E-10 LD=1.698E-9 UO=862.425 \n+ XJ=6.4666E-7 THETA=1.0E-5 CGSO=2.50E-9 L=4.0E-6 W=59E-3\n*\n.MODEL DMOS D \n+ IS=5.831E-13   N=1.027      RS=4.8 \n+ BV=400         IBV=0.001 \n*\n.MODEL JMOD NJF \n+ VTO=-2.4       BETA=0.3248  IS=1E-12 \n+ RD=4.45        LAMBDA=0 \n.ENDS
TEXT 2488 -536 Left 0 !.SUBCKT trace15 1 2 3 4 5 6\n*\n* Primary\n*\nLleak1    1    20   2mH\nLpri1       20  21   150H\nRpri1       21  2     186\nCpri1       1    2     120p\nLleak2    2    22    2mH\nLpri2       22  23    150H\nRpri2      23   3      201\nCpri2       2     3     120p\n*\n* Secondary\n*\nLleak4    4    27    17uH\nLsec2     27  28    0.5H\nRsec2    28    5     1.13\n \nKcoup   Lpri1 LPri2 Lsec2 1.0\n.ENDS
TEXT 1680 8 Left 0 ;22.5k to 8ohm
TEXT 56 56 Left 0 !.tran 0 3 2.99
TEXT 376 64 Left 0 !.step param b list 100 400 800
