Version 4
SHEET 1 3432 24476
WIRE 1520 -864 1504 -864
WIRE 1600 -816 1600 -864
WIRE 64 -608 -288 -608
WIRE 960 -608 64 -608
WIRE 1024 -608 1024 -656
WIRE 1024 -608 960 -608
WIRE 1312 -608 1024 -608
WIRE 1504 -608 1312 -608
WIRE -288 -544 -736 -544
WIRE -160 -544 -288 -544
WIRE 64 -544 -80 -544
WIRE 208 -544 64 -544
WIRE 384 -544 208 -544
WIRE 832 -544 384 -544
WIRE 960 -544 912 -544
WIRE 992 -544 960 -544
WIRE 1104 -544 992 -544
WIRE 1264 -544 1184 -544
WIRE 1312 -544 1264 -544
WIRE 1376 -544 1312 -544
WIRE 1504 -544 1456 -544
WIRE 1568 -544 1568 -720
WIRE 1568 -544 1504 -544
WIRE -736 -512 -736 -544
WIRE -608 -512 -736 -512
WIRE -736 -496 -736 -512
WIRE -608 -496 -608 -512
WIRE 784 -496 688 -496
WIRE 992 -496 992 -544
WIRE 992 -496 784 -496
WIRE 784 -480 784 -496
WIRE 688 -400 688 -496
WIRE 1360 -400 1184 -400
WIRE -736 -384 -736 -416
WIRE -528 -384 -736 -384
WIRE -416 -384 -464 -384
WIRE -240 -384 -416 -384
WIRE -112 -384 -176 -384
WIRE 1184 -368 1184 -400
WIRE -736 -352 -736 -384
WIRE 864 -320 688 -320
WIRE 960 -320 928 -320
WIRE 992 -320 960 -320
WIRE 1136 -320 1072 -320
WIRE -288 -304 -416 -304
WIRE -112 -304 -112 -384
WIRE 48 -304 -16 -304
WIRE 384 -304 384 -544
WIRE -608 -288 -608 -416
WIRE -608 -288 -688 -288
WIRE -1248 -272 -1264 -272
WIRE -976 -272 -1168 -272
WIRE -880 -272 -912 -272
WIRE -784 -272 -800 -272
WIRE 688 -272 688 -320
WIRE 960 -272 960 -320
WIRE 1776 -256 1712 -256
WIRE 1776 -240 1776 -256
WIRE -288 -224 -288 -240
WIRE -288 -224 -416 -224
WIRE -224 -224 -288 -224
WIRE -112 -224 -144 -224
WIRE -16 -224 -16 -304
WIRE -16 -224 -112 -224
WIRE 128 -224 48 -224
WIRE 208 -224 208 -464
WIRE 208 -224 192 -224
WIRE 256 -224 208 -224
WIRE 544 -224 496 -224
WIRE 640 -224 544 -224
WIRE 1056 -224 1040 -224
WIRE 1360 -224 1360 -400
WIRE 1408 -224 1360 -224
WIRE 1712 -224 1712 -256
WIRE 1712 -224 1632 -224
WIRE -288 -208 -288 -224
WIRE 496 -208 496 -224
WIRE 496 -208 384 -208
WIRE -912 -176 -912 -272
WIRE -768 -176 -768 -224
WIRE -768 -176 -816 -176
WIRE 1264 -160 1264 -544
WIRE 1408 -160 1264 -160
WIRE 1664 -160 1632 -160
WIRE -288 -144 -416 -144
WIRE 1664 -144 1664 -160
WIRE 1696 -144 1664 -144
WIRE 1744 -144 1696 -144
WIRE -112 -128 -112 -144
WIRE 448 -128 432 -128
WIRE 544 -128 544 -144
WIRE 544 -128 528 -128
WIRE 560 -128 544 -128
WIRE 656 -128 656 -176
WIRE 656 -128 640 -128
WIRE 960 -128 960 -192
WIRE 960 -128 912 -128
WIRE 1040 -128 1040 -224
WIRE 1040 -128 960 -128
WIRE 1120 -128 1120 -224
WIRE 1152 -128 1152 -272
WIRE 1152 -128 1120 -128
WIRE 544 -112 544 -128
WIRE -608 -96 -608 -224
WIRE 1408 -96 1360 -96
WIRE 656 -80 656 -128
WIRE 960 -80 960 -128
WIRE 48 -64 48 -144
WIRE 432 -32 432 -128
WIRE 464 -32 432 -32
WIRE 544 -32 528 -32
WIRE 640 -32 544 -32
WIRE 432 0 432 -32
WIRE 1152 0 1152 -128
WIRE 688 48 688 16
WIRE 784 48 784 -400
WIRE 784 48 688 48
WIRE 880 48 784 48
WIRE 960 48 960 0
WIRE 960 48 944 48
WIRE 992 48 960 48
WIRE 1136 48 1072 48
WIRE 1184 128 1184 96
WIRE 1360 128 1360 -96
WIRE 1360 128 1184 128
FLAG -768 -96 0
FLAG -1264 -272 0
FLAG -912 -96 0
FLAG -608 -96 0
FLAG -416 -64 0
FLAG -112 -64 0
FLAG 48 -64 0
FLAG 912 -128 0
FLAG 432 0 0
FLAG 1024 -656 0
FLAG 1504 -864 0
FLAG -816 -112 0
FLAG 208 -64 0
FLAG 384 -128 0
FLAG 1696 -64 0
SYMBOL Misc\\pentode -736 -288 R0
SYMATTR InstName U1
SYMATTR Value ""
SYMATTR SpiceModel EF86
SYMBOL res -752 -512 R0
SYMATTR InstName R1
SYMATTR Value 220k
SYMBOL res -784 -192 R0
SYMATTR InstName R2
SYMATTR Value 2.2k
SYMBOL cap -976 -288 M90
WINDOW 0 0 32 VBottom 0
WINDOW 3 32 32 VTop 0
SYMATTR InstName C2
SYMATTR Value .01µ
SYMBOL voltage -1264 -272 M90
WINDOW 0 -32 56 VBottom 0
WINDOW 3 49 48 VTop 0
WINDOW 123 79 49 VTop 0
WINDOW 39 0 0 Left 0
SYMATTR InstName V2
SYMATTR Value SINE(0 1 500)
SYMBOL cap -624 -288 R0
SYMATTR InstName C3
SYMATTR Value .1µ
SYMBOL res -896 -288 M90
WINDOW 0 0 56 VBottom 0
WINDOW 3 32 56 VTop 0
SYMATTR InstName R3
SYMATTR Value 68k
SYMBOL res -928 -192 R0
SYMATTR InstName R4
SYMATTR Value 1Meg
SYMBOL res -624 -512 R0
SYMATTR InstName R5
SYMATTR Value 1Meg
SYMBOL cap -464 -400 R90
WINDOW 0 0 32 VBottom 0
WINDOW 3 32 32 VTop 0
SYMATTR InstName C1
SYMATTR Value .1µ
SYMATTR SpiceLine V=400
SYMBOL res -432 -400 R0
SYMATTR InstName R9
SYMATTR Value 100k
SYMBOL res -432 -320 R0
SYMATTR InstName R10
SYMATTR Value 700k
SYMBOL res -432 -160 R0
SYMATTR InstName R11
SYMATTR Value 10k
SYMBOL cap -304 -208 R0
SYMATTR InstName C6
SYMATTR Value 4.7n
SYMBOL cap -304 -304 R0
WINDOW 0 42 22 Left 0
SYMATTR InstName C7
SYMATTR Value 470p
SYMBOL res -432 -240 R0
SYMATTR InstName R12
SYMATTR Value 300k
SYMBOL res -128 -240 R90
WINDOW 0 0 56 VBottom 0
WINDOW 3 32 56 VTop 0
SYMATTR InstName R14
SYMATTR Value 180k
SYMBOL res -128 -240 R0
SYMATTR InstName R15
SYMATTR Value 235k
SYMBOL res -128 -320 R0
SYMATTR InstName R16
SYMATTR Value 235k
SYMBOL cap -176 -400 R90
WINDOW 0 0 32 VBottom 0
WINDOW 3 32 32 VTop 0
SYMATTR InstName C8
SYMATTR Value 330p
SYMBOL cap -128 -128 R0
WINDOW 3 46 53 Left 0
SYMATTR Value 3.3n
SYMATTR InstName C9
SYMBOL res 32 -240 R0
SYMATTR InstName R7
SYMATTR Value 1Meg
SYMBOL res 32 -320 R0
SYMATTR InstName R8
SYMATTR Value 0.001k
SYMBOL cap 1120 -240 R90
WINDOW 0 0 32 VBottom 0
WINDOW 3 32 32 VTop 0
SYMATTR InstName C5
SYMATTR Value 47µ
SYMBOL res 1136 -144 R90
WINDOW 0 0 56 VBottom 0
WINDOW 3 32 56 VTop 0
SYMATTR InstName R13
SYMATTR Value 820
SYMBOL cap 192 -240 R90
WINDOW 0 0 32 VBottom 0
WINDOW 3 32 32 VTop 0
SYMATTR InstName C10
SYMATTR Value .022µ
SYMBOL res 528 -240 R0
WINDOW 0 38 31 Left 0
WINDOW 3 43 54 Left 0
SYMATTR InstName R20
SYMATTR Value 1Meg
SYMBOL res 528 -128 R0
WINDOW 0 40 59 Left 0
WINDOW 3 34 83 Left 0
SYMATTR InstName R21
SYMATTR Value 1Meg
SYMBOL res 656 -144 R90
WINDOW 0 54 67 VBottom 0
WINDOW 3 32 23 VTop 0
SYMATTR InstName R22
SYMATTR Value 470
SYMBOL res 544 -144 R90
WINDOW 0 0 56 VBottom 0
WINDOW 3 32 56 VTop 0
SYMATTR InstName R23
SYMATTR Value 10k
SYMBOL cap 528 -48 R90
WINDOW 0 0 32 VBottom 0
WINDOW 3 32 32 VTop 0
SYMATTR InstName C11
SYMATTR Value .1µ
SYMBOL Misc\\triode 688 -224 R0
WINDOW 3 -90 -52 Left 0
WINDOW 0 -41 -78 Left 0
SYMATTR Value ""
SYMATTR InstName U4
SYMATTR SpiceModel 12AU7
SYMBOL Misc\\triode 688 -32 M180
WINDOW 3 -73 -71 Left 0
WINDOW 0 -69 -43 Left 0
SYMATTR Value ""
SYMATTR InstName U5
SYMATTR SpiceModel 12AU7
SYMBOL res 672 -416 R0
SYMATTR InstName R24
SYMATTR Value 100k
SYMBOL res 800 -384 R180
WINDOW 0 36 76 Left 0
WINDOW 3 36 40 Left 0
SYMATTR InstName R25
SYMATTR Value 100k
SYMBOL cap 928 -336 R90
WINDOW 0 0 32 VBottom 0
WINDOW 3 32 32 VTop 0
SYMATTR InstName C12
SYMATTR Value .022µ
SYMBOL cap 944 32 R90
WINDOW 0 0 32 VBottom 0
WINDOW 3 32 32 VTop 0
SYMATTR InstName C13
SYMATTR Value .022µ
SYMBOL res 944 -288 R0
SYMATTR InstName R26
SYMATTR Value 220k
SYMBOL res 944 -96 R0
SYMATTR InstName R27
SYMATTR Value 220k
SYMBOL res 976 -304 R270
WINDOW 0 32 56 VTop 0
WINDOW 3 0 56 VBottom 0
SYMATTR InstName R28
SYMATTR Value 2.2k
SYMBOL res 976 64 R270
WINDOW 0 32 56 VTop 0
WINDOW 3 0 56 VBottom 0
SYMATTR InstName R29
SYMATTR Value 2.2k
SYMBOL res 1472 -560 R90
WINDOW 0 0 56 VBottom 0
WINDOW 3 32 56 VTop 0
SYMATTR InstName R30
SYMATTR Value 1k
SYMATTR SpiceLine pwr=5
SYMBOL polcap 1520 -544 R180
WINDOW 0 24 57 Left 0
WINDOW 3 24 8 Left 0
SYMATTR InstName C14
SYMATTR Value 22µ
SYMBOL polcap 976 -544 R180
WINDOW 0 24 57 Left 0
WINDOW 3 24 8 Left 0
SYMATTR InstName C15
SYMATTR Value 47µ
SYMBOL res 928 -560 R90
WINDOW 0 0 56 VBottom 0
WINDOW 3 32 56 VTop 0
SYMATTR InstName R31
SYMATTR Value 6k8
SYMATTR SpiceLine pwr=1
SYMBOL res -64 -560 R90
WINDOW 0 0 56 VBottom 0
WINDOW 3 32 56 VTop 0
SYMATTR InstName R32
SYMATTR Value 10k
SYMBOL polcap 80 -544 R180
WINDOW 0 24 57 Left 0
WINDOW 3 24 8 Left 0
SYMATTR InstName C16
SYMATTR Value 22µ
SYMBOL polcap -272 -544 R180
WINDOW 0 24 57 Left 0
WINDOW 3 24 8 Left 0
SYMATTR InstName C17
SYMATTR Value 10µ
SYMBOL Misc\\triode 1184 -320 R0
WINDOW 3 -90 -52 Left 0
WINDOW 0 -41 -78 Left 0
SYMATTR Value ""
SYMATTR InstName U2
SYMATTR SpiceModel 12AU7
SYMBOL Misc\\triode 1184 48 M180
WINDOW 3 -73 -71 Left 0
WINDOW 0 -69 -43 Left 0
SYMATTR Value ""
SYMATTR InstName U3
SYMATTR SpiceModel 12AU7
SYMBOL cap 1296 -608 R0
SYMATTR InstName C4
SYMATTR Value 47µ
SYMBOL res 1200 -560 R90
WINDOW 0 0 56 VBottom 0
WINDOW 3 32 56 VTop 0
SYMATTR InstName R18
SYMATTR Value 2k
SYMBOL Misc\\Diode 1600 -768 R0
SYMATTR InstName U6
SYMATTR Value ""
SYMATTR SpiceModel 5Y3GT
SYMBOL voltage 1616 -864 R90
WINDOW 0 -32 56 VBottom 0
WINDOW 3 32 56 VTop 0
WINDOW 123 0 0 Left 0
WINDOW 39 0 0 Left 0
SYMATTR InstName V1
SYMATTR Value SINE(0 424 120)
SYMBOL cap -832 -176 R0
SYMATTR InstName C18
SYMATTR Value 10µ
SYMBOL nmos 336 -304 R0
SYMATTR InstName M1
SYMATTR Value DN2540
SYMBOL res 400 -112 R180
WINDOW 0 36 76 Left 0
WINDOW 3 36 40 Left 0
SYMATTR InstName R19
SYMATTR Value 10k
SYMBOL res 192 -560 R0
SYMATTR InstName R34
SYMATTR Value 1Meg
SYMBOL res 192 -240 R0
SYMATTR InstName R35
SYMATTR Value 75k
SYMBOL res 192 -160 R0
SYMATTR InstName R33
SYMATTR Value 150k
SYMBOL res 240 -208 R270
WINDOW 0 32 56 VTop 0
WINDOW 3 0 56 VBottom 0
SYMATTR InstName R36
SYMATTR Value 220
SYMBOL Misc\\DIP6 1520 -128 R0
SYMATTR InstName U7
SYMATTR SpiceModel trace15
SYMBOL Misc\\Diode 1776 -192 R0
SYMATTR InstName U8
SYMATTR Value ""
SYMATTR SpiceModel VINT10
SYMBOL res 1680 -160 R0
SYMATTR InstName R37
SYMATTR Value 100Meg
TEXT -520 -664 Left 0 !.tran 3
TEXT -1064 -40 Left 0 ;fourth grid connected to first.  (not shown)
TEXT -488 -240 Left 0 ;Bass\n1M
TEXT -104 -344 Left 0 ;Treble\n470k
TEXT -368 -440 Left 0 ;James Tone Stack
TEXT 672 -720 Left 0 ;See ax84_MoonlightJon.pdf for powersupply details
TEXT 1296 -64 Left 0 ;Hammond 125A
TEXT 40 -328 Left 0 ;Volume
TEXT 2240 -440 Left 0 !.SUBCKT EF86 K G S U A\n \n*\n* Calculate reduction in mu when Vg < -3V\n*\nEmu             mu              0               VALUE={LIMIT{V(G,K),-3,999}+LIMIT{V(G,K)+3,-999,0}*0.714}\n*\n* Calculate contribution to cathode current\n*\nEat             at              0               VALUE={0.636*ATAN(V(A,K)/15)}\nEgs             gs              0               VALUE={LIMIT{V(S,K)/27.5+V(mu)*1.32+1,0,1E6}}\nEgs2            gs2             0               VALUE={PWRS(V(gs),1.5)}\nEcath           cc              0               VALUE={V(gs2)*V(at)}\n*\n* Calculate anode current\n*\nGa              A               K               VALUE={5.83E-4*V(cc)}\n*\n* Calculate screen current\n*\nEscrn           sc              0               VALUE={V(gs2)*(1.1-V(at))}\nGs              S               K               VALUE={0.5E-3*V(sc)}\n*\n* Capacitances\n*\nCg1             G               K               3.8p\nCak             A               K               5.3p\nCg1a            G               A               0.05p\n.ENDS
TEXT 1680 -776 Left 0 !.SUBCKT 12AU7 1 2 3\n* ANODE G CAT\nX1 1 2 3 TRIO1 G=.524m MU=15.2 B=49.7 Vc=9.93\nX2 2 3 Igrid ALPHA=.04m BETA=.1U\nC1 1 2 1.6p\nC2 2 3 2.5p\nC3 1 3 .45p\nRF1 1 3 200MEG\nRF2 2 3 50MEG\n.ENDS
TEXT 1872 -632 Left 0 !.SUBCKT TRIO1 A G C\nB1 A C I={G}*(1+V(G,C)/({B}-(V(G,C)/1000)))*(V(G,C)+((V(A,C)+{Vc})/{MU}))**1.5\n.ENDS
TEXT 1968 -560 Left 0 !.SUBCKT Igrid G1 C\n* Courant grille\nB4 6 0 V=IF(V(G1,C)>0,{ALPHA}*V(G1,C)**1.5,{BETA}/-(V(G1,C)-.1))\nB5 G1 C I=V(6,0)\n.ENDS
TEXT 1432 -408 Left 0 !.SUBCKT 5Y3GT A K\nGP  A  K  VALUE={2.69E-4*(PWR(V(A,K),1.5)+PWRS(V(A,K),1.5))/2}\n.ENDS 5Y3GT
TEXT 1552 -528 Left 0 ;360
TEXT 1280 -528 Left 0 ;344
TEXT 1040 -528 Left 0 ;315
TEXT 616 -528 Left 0 ;286
TEXT -480 -528 Left 0 ;276
TEXT -768 -376 Left 0 ;88
TEXT -640 -352 Left 0 ;97
TEXT -472 -400 Left 0 ;0
TEXT -760 -192 Left 0 ;2.3
TEXT 664 -128 Left 0 ;33
TEXT 696 -296 Left 0 ;85
TEXT 792 -272 Left 0 ;74
TEXT 1160 -152 Left 0 ;8.4
TEXT 1296 -64 Left 0 ;Hammond 125D
TEXT 1416 40 Left 0 !.SUBCKT VINT10 A B\nR_RL          A       $N_0002  7.5  \nR_RD1         $N_0002 $N_0003  12.5  \nL_LD1         $N_0003 $N_0002  20mH  \nC_CD1         $N_0002 $N_0003  195u  \nR_RD2         $N_0003 $N_0004  0.5  \nC_CD2         $N_0003 $N_0004  50u  \nL_LD2         $N_0004 $N_0003  100uH  \nL_LD3         B       $N_0004  120uH  \nR_RD3                 B       $N_0004  20\n.ENDS
TEXT 1856 -312 Left 0 !.SUBCKT trace15 1 2 3 4 5 6\n*\n* Primary\n*\nLleak1  1       20      2mH\nLpri1   20      21      150H\nRpri1   21      2       186\nCpri1   1       2       120p\nLleak2  2       22      2mH\nLpri2   22      23      150H\nRpri2   23      3       201\nCpri2   2       3       120p\n*\n* Secondary\n*\nLleak3  5       24              10uH\nLsec1   24      25      0.6H\nRsec1   25      6       0.8\nLleak4  4           27          10uH\nLsec2             27      28    0.3H\nRsec2             28                5                 0.4\n \nKcoup   Lpri1 LPri2 Lsec1 Lsec2 1.0\n.ENDS
