Version 4
SHEET 1 5384 24476
WIRE -400 -1200 -448 -1200
WIRE -288 -1200 -400 -1200
WIRE -128 -1200 -224 -1200
WIRE 0 -1136 -32 -1136
WIRE -288 -1120 -400 -1120
WIRE -128 -1120 -128 -1200
WIRE 0 -1120 0 -1136
WIRE -288 -1040 -288 -1056
WIRE -288 -1040 -400 -1040
WIRE -240 -1040 -288 -1040
WIRE -128 -1040 -160 -1040
WIRE -32 -1040 -32 -1136
WIRE -32 -1040 -128 -1040
WIRE 240 -1040 0 -1040
WIRE -288 -1024 -288 -1040
WIRE -448 -1008 -448 -1200
WIRE -448 -1008 -880 -1008
WIRE -288 -960 -400 -960
WIRE -128 -944 -128 -960
WIRE -400 -880 -528 -880
WIRE -128 -880 -400 -880
WIRE 0 -880 0 -960
WIRE 0 -880 -128 -880
WIRE 0 -864 0 -880
WIRE -1280 -688 -1280 -704
WIRE -1280 -688 -1472 -688
WIRE -1040 -688 -1280 -688
WIRE -1280 -672 -1280 -688
WIRE -960 -560 -960 -688
WIRE -944 -560 -960 -560
WIRE -880 -560 -880 -1008
WIRE -960 -528 -960 -560
WIRE -1360 -464 -1408 -464
WIRE -1248 -464 -1360 -464
WIRE -1200 -464 -1248 -464
WIRE -1056 -464 -1200 -464
WIRE -912 -464 -992 -464
WIRE -992 -416 -992 -464
WIRE -992 -416 -1136 -416
WIRE -1408 -384 -1408 -400
WIRE -1360 -384 -1408 -384
WIRE -1248 -368 -1248 -464
WIRE -1200 -368 -1248 -368
WIRE -1136 -368 -1136 -416
WIRE -1136 -368 -1200 -368
WIRE -1056 -368 -1056 -464
WIRE -912 -368 -1056 -368
WIRE -1280 -288 -1280 -592
WIRE -1136 -288 -1280 -288
WIRE -1472 -256 -1472 -688
WIRE -1280 -160 -1280 -288
WIRE -1472 -64 -1472 -192
WIRE -1408 -64 -1408 -384
WIRE -1408 -64 -1472 -64
WIRE -1280 -64 -1280 -96
WIRE -1280 -64 -1408 -64
WIRE -1056 -64 -1280 -64
WIRE -976 -64 -976 -208
WIRE -1472 -48 -1472 -64
WIRE -1056 48 -1056 -64
WIRE -976 48 -976 0
FLAG 0 -864 0
FLAG -1472 -48 0
FLAG -1280 -784 0
SYMBOL res -416 -1216 R0
SYMATTR InstName R26
SYMATTR Value 100k
SYMBOL res -416 -1136 R0
SYMATTR InstName R27
SYMATTR Value 800k
SYMBOL res -416 -976 R0
SYMATTR InstName R28
SYMATTR Value 10k
SYMBOL cap -304 -1024 R0
SYMATTR InstName C9
SYMATTR Value 4.7n
SYMBOL cap -304 -1120 R0
WINDOW 0 42 22 Left 0
SYMATTR InstName C10
SYMATTR Value 470p
SYMBOL res -416 -1056 R0
SYMATTR InstName R29
SYMATTR Value 200k
SYMBOL res -144 -1056 R90
WINDOW 0 0 56 VBottom 0
WINDOW 3 32 56 VTop 0
SYMATTR InstName R30
SYMATTR Value 180k
SYMBOL res -144 -1056 R0
SYMATTR InstName R31
SYMATTR Value 170k
SYMBOL res -144 -1136 R0
SYMATTR InstName R32
SYMATTR Value 300k
SYMBOL cap -224 -1216 R90
WINDOW 0 0 32 VBottom 0
WINDOW 3 32 32 VTop 0
SYMATTR InstName C11
SYMATTR Value 330p
SYMBOL cap -144 -944 R0
WINDOW 3 46 53 Left 0
SYMATTR Value 3.3n
SYMATTR InstName C12
SYMBOL res -16 -1056 R0
SYMATTR InstName R33
SYMATTR Value 1Meg
SYMBOL res -16 -1136 R0
SYMATTR InstName R34
SYMATTR Value 0.001k
SYMBOL Misc\\Pinout9 -1056 -448 R0
SYMATTR InstName U10
SYMATTR SpiceModel EF86pinout
SYMBOL res -1056 -672 R270
WINDOW 0 32 56 VTop 0
WINDOW 3 0 56 VBottom 0
SYMATTR InstName R74
SYMATTR Value 330k
SYMBOL res -1344 -368 R180
WINDOW 0 -29 76 Left 0
WINDOW 3 -28 46 Left 0
SYMATTR InstName R75
SYMATTR Value 2.2k
SYMBOL cap -960 0 R180
WINDOW 0 -54 40 Left 0
WINDOW 3 -56 15 Left 0
SYMATTR InstName C32
SYMATTR Value .01µ
SYMBOL voltage -960 48 R90
WINDOW 0 26 -5 VBottom 0
WINDOW 3 49 48 VTop 0
WINDOW 123 37 -46 VBottom 0
WINDOW 39 0 0 Left 0
SYMATTR InstName V5
SYMATTR Value SINE(0 1 1000)
SYMATTR Value2 AC 1
SYMBOL cap -1264 -160 M0
WINDOW 3 27 47 Left 0
SYMATTR Value .1µ
SYMATTR InstName C33
SYMBOL res -960 -192 R180
WINDOW 0 36 76 Left 0
WINDOW 3 36 40 Left 0
SYMATTR InstName R76
SYMATTR Value 68k
SYMBOL res -960 -48 M270
WINDOW 0 62 51 VTop 0
WINDOW 3 61 54 VBottom 0
SYMATTR InstName R77
SYMATTR Value 1Meg
SYMBOL res -1296 -688 R0
SYMATTR InstName R78
SYMATTR Value 2.2Meg
SYMBOL polcap -1456 -256 M0
SYMATTR InstName C34
SYMATTR Value 47µ
SYMATTR SpiceLine V=450
SYMBOL cap -1424 -464 R0
SYMATTR InstName C35
SYMATTR Value 25µ
SYMBOL cap -880 -576 R90
WINDOW 0 0 32 VBottom 0
WINDOW 3 32 32 VTop 0
SYMATTR InstName C36
SYMATTR Value .047µ
SYMBOL voltage -1280 -688 R180
WINDOW 0 24 104 Left 0
WINDOW 3 24 16 Left 0
WINDOW 123 0 0 Left 0
WINDOW 39 0 0 Left 0
SYMATTR InstName V1
SYMATTR Value 320
TEXT -400 -1280 Left 0 ;Bass\n1M
TEXT -144 -1296 Left 0 ;Treble\n500k
TEXT -400 -1328 Left 0 ;James Tone Stack
TEXT -24 -1216 Left 0 ;Volume\n1M
TEXT -1328 -840 Left 0 ;ground 2&7 to ground or to 3&8.
TEXT -656 -704 Left 0 !.SUBCKT EF86pinout S E1 K H1 H2 A E2 U G\n \n*\n* Calculate reduction in mu when Vg < -3V\n*\nEmu             mu              0               VALUE={LIMIT{V(G,K),-3,999}+LIMIT{V(G,K)+3,-999,0}*0.714}\n*\n* Calculate contribution to cathode current\n*\nEat             at              0               VALUE={0.636*ATAN(V(A,K)/15)}\nEgs             gs              0               VALUE={LIMIT{V(S,K)/27.5+V(mu)*1.32+1,0,1E6}}\nEgs2            gs2             0               VALUE={PWRS(V(gs),1.5)}\nEcath           cc              0               VALUE={V(gs2)*V(at)}\n*\n* Calculate anode current\n*\nGa              A               K               VALUE={5.83E-4*V(cc)}\n*\n* Calculate screen current\n*\nEscrn           sc              0               VALUE={V(gs2)*(1.1-V(at))}\nGs              S               K               VALUE={0.5E-3*V(sc)}\n*\n* Capacitances\n*\nCg1             G               K               3.8p\nCak             A               K               5.3p\nCg1a            G               A               0.05p\n.ENDS
TEXT -1032 152 Left 0 ;input
TEXT -1968 1424 Left 0 !.tran 0 2 1.99
