Version 4
SHEET 1 3980 1476
WIRE 2768 336 2656 336
WIRE 2880 336 2848 336
WIRE 2656 352 2656 336
WIRE 3296 368 2912 368
WIRE 3328 416 3056 416
WIRE 2880 432 2880 336
WIRE 2656 464 2656 432
WIRE 2656 464 2624 464
WIRE 2912 464 2912 448
WIRE 2960 464 2912 464
WIRE 2976 464 2960 464
WIRE 3296 480 3296 368
WIRE 3328 480 3328 416
WIRE 2656 496 2656 464
WIRE 2912 496 2912 464
WIRE 3056 576 3056 416
WIRE 3056 576 2912 576
WIRE 3568 576 3280 576
WIRE 2656 592 2656 576
WIRE 2768 592 2656 592
WIRE 2880 592 2880 512
WIRE 2880 592 2848 592
WIRE 2960 656 2960 464
WIRE 3520 656 2960 656
WIRE 2640 784 2128 784
WIRE 3392 784 2640 784
WIRE 3520 784 3520 656
WIRE 3520 784 3392 784
WIRE 2128 848 1968 848
WIRE 2208 848 2128 848
WIRE 2416 848 2288 848
WIRE 2560 848 2416 848
WIRE 2640 848 2560 848
WIRE 2720 848 2640 848
WIRE 3328 848 2800 848
WIRE 3392 848 3328 848
WIRE 3408 848 3392 848
WIRE 3520 848 3488 848
WIRE 3568 848 3568 576
WIRE 3568 848 3520 848
WIRE 3376 896 3216 896
WIRE 2416 912 2416 848
WIRE 2560 912 2560 848
WIRE 3216 944 3216 896
WIRE 3024 992 2960 992
WIRE 3056 992 3024 992
WIRE 3168 992 3136 992
WIRE 3024 1008 3024 992
WIRE 3376 1024 3376 896
WIRE 1968 1040 1968 848
WIRE 1968 1040 1872 1040
WIRE 2064 1040 1968 1040
WIRE 2416 1040 2416 992
WIRE 2896 1040 2896 992
WIRE 2896 1040 2416 1040
WIRE 3552 1056 3472 1056
WIRE 3584 1056 3552 1056
WIRE 1872 1072 1872 1040
WIRE 2064 1072 2064 1040
WIRE 2560 1072 2560 992
WIRE 2896 1072 2560 1072
WIRE 3472 1072 3472 1056
WIRE 3328 1104 3328 848
WIRE 3376 1104 3328 1104
WIRE 2416 1120 2416 1040
WIRE 2560 1120 2560 1072
WIRE 3024 1120 3024 1088
WIRE 3024 1120 2848 1120
WIRE 3072 1120 3024 1120
WIRE 3184 1120 3184 1040
WIRE 3184 1120 3152 1120
WIRE 2416 1136 2416 1120
WIRE 3024 1152 3024 1120
WIRE 3552 1152 3472 1152
WIRE 1872 1168 1872 1152
WIRE 1936 1168 1872 1168
WIRE 2192 1168 2000 1168
WIRE 2368 1168 2336 1168
WIRE 2640 1168 2608 1168
WIRE 2768 1168 2640 1168
WIRE 3184 1200 3184 1120
WIRE 1872 1216 1872 1168
WIRE 1824 1248 1776 1248
WIRE 2192 1248 2192 1168
WIRE 2336 1248 2336 1168
WIRE 2384 1248 2384 1216
WIRE 2480 1248 2384 1248
WIRE 2592 1248 2592 1216
WIRE 2592 1248 2480 1248
WIRE 2640 1248 2640 1168
WIRE 2768 1248 2768 1168
WIRE 2896 1248 2896 1072
WIRE 3024 1248 3024 1232
WIRE 3024 1248 2960 1248
WIRE 3056 1248 3024 1248
WIRE 3168 1248 3136 1248
WIRE 2064 1264 2064 1152
WIRE 2064 1264 1920 1264
WIRE 1520 1280 1424 1280
WIRE 1632 1280 1584 1280
WIRE 1664 1280 1632 1280
WIRE 1824 1280 1744 1280
WIRE 1632 1312 1632 1280
WIRE 2064 1312 2064 1264
WIRE 1776 1328 1776 1248
WIRE 1840 1328 1776 1328
WIRE 2272 1328 2272 1168
WIRE 2272 1328 2192 1328
WIRE 2480 1328 2336 1328
WIRE 2640 1328 2480 1328
WIRE 3216 1360 3216 1296
WIRE 3376 1360 3376 1184
WIRE 3376 1360 3216 1360
WIRE 1424 1408 1424 1360
WIRE 1632 1408 1632 1392
WIRE 1632 1408 1424 1408
WIRE 1664 1408 1632 1408
WIRE 1776 1408 1776 1392
WIRE 1776 1408 1664 1408
WIRE 1840 1408 1776 1408
WIRE 2064 1408 2064 1376
WIRE 2064 1408 1840 1408
WIRE 2480 1408 2192 1408
WIRE 2768 1408 2768 1312
WIRE 2768 1408 2480 1408
WIRE 2848 1408 2848 1120
WIRE 2848 1408 2768 1408
WIRE 1664 1424 1664 1408
FLAG 2976 464 0
FLAG 2624 464 0
FLAG 1664 1424 0
FLAG 3552 976 0
FLAG 3552 1232 0
SYMBOL res 2304 832 R90
WINDOW 0 0 56 VBottom 0
WINDOW 3 32 56 VTop 0
SYMATTR InstName R1
SYMATTR Value 10k
SYMBOL polcap 2144 848 R180
WINDOW 0 24 57 Left 0
WINDOW 3 24 8 Left 0
SYMATTR InstName C1
SYMATTR Value 10µ
SYMATTR SpiceLine V=450
SYMBOL polcap 3408 848 R180
WINDOW 0 24 57 Left 0
WINDOW 3 24 8 Left 0
SYMATTR InstName C3
SYMATTR Value 47µ
SYMATTR SpiceLine V=450
SYMBOL res 3504 832 R90
WINDOW 0 0 56 VBottom 0
WINDOW 3 32 56 VTop 0
SYMATTR InstName R3
SYMATTR Value 1k
SYMATTR SpiceLine pwr=5
SYMBOL polcap 3536 848 R180
WINDOW 0 24 57 Left 0
WINDOW 3 24 8 Left 0
SYMATTR InstName C4
SYMATTR Value 22µ
SYMATTR SpiceLine V=450
SYMBOL voltage 2656 336 R0
WINDOW 3 -187 39 Invisible 0
WINDOW 123 0 0 Left 0
WINDOW 39 0 0 Left 0
SYMATTR Value SINE(0 169.7 60)
SYMATTR InstName V1
SYMBOL voltage 2656 480 R0
WINDOW 123 0 0 Left 0
WINDOW 39 0 0 Left 0
WINDOW 3 -196 53 Invisible 0
SYMATTR Value SINE(0 169.7 60)
SYMATTR InstName V2
SYMBOL Misc\\DualTubeRect 3312 528 R0
WINDOW 3 8 -36 Left 0
SYMATTR Value 5Y3GT
SYMATTR InstName U1
SYMBOL ind2 2896 528 R180
WINDOW 0 36 80 Left 0
WINDOW 3 36 40 Left 0
SYMATTR InstName L1
SYMATTR Value 1H
SYMATTR Type ind
SYMBOL ind2 2896 352 R0
SYMATTR InstName L2
SYMATTR Value {N**2 * 1H}
SYMATTR Type ind
SYMBOL ind2 2896 480 R0
SYMATTR InstName L3
SYMATTR Value {N**2 * 1H}
SYMATTR Type ind
SYMBOL res 2864 320 R90
WINDOW 0 0 56 VBottom 0
WINDOW 3 32 56 VTop 0
SYMATTR InstName R4
SYMATTR Value 1m
SYMBOL res 2864 576 R90
WINDOW 0 0 56 VBottom 0
WINDOW 3 32 56 VTop 0
SYMATTR InstName R5
SYMATTR Value 1m
SYMBOL Misc\\signal 1424 1264 R0
WINDOW 123 24 132 Left 0
WINDOW 39 0 0 Left 0
SYMATTR Value2 AC 1
SYMATTR InstName V3
SYMATTR Value SINE(0 .35 600)
SYMBOL cap 1584 1264 R90
WINDOW 0 0 32 VBottom 0
WINDOW 3 32 32 VTop 0
SYMATTR InstName C7
SYMATTR Value .01µ
SYMATTR SpiceLine V=400
SYMBOL res 1616 1296 R0
SYMATTR InstName R8
SYMATTR Value 1Meg
SYMBOL res 1760 1264 R90
WINDOW 0 0 56 VBottom 0
WINDOW 3 32 56 VTop 0
SYMATTR InstName R9
SYMATTR Value 68k
SYMBOL polcap 1760 1328 R0
SYMATTR InstName C8
SYMATTR Value 25µ
SYMATTR SpiceLine V=25
SYMBOL res 1824 1312 R0
SYMATTR InstName R10
SYMATTR Value 1.5k
SYMBOL res 1856 1056 R0
SYMATTR InstName R11
SYMATTR Value 220k
SYMBOL res 2048 1056 R0
SYMATTR InstName R12
SYMATTR Value 5.5Meg
SYMBOL cap 2000 1152 R90
WINDOW 0 0 32 VBottom 0
WINDOW 3 32 32 VTop 0
SYMATTR InstName C9
SYMATTR Value .1µ
SYMATTR SpiceLine V=400
SYMBOL cap 2048 1312 R0
SYMATTR InstName C10
SYMATTR Value .01µ
SYMATTR SpiceLine V=400
SYMBOL Misc\\tetrode 1872 1264 R0
SYMATTR InstName U2
SYMATTR Value EF86
SYMBOL res 2176 1312 R0
SYMATTR InstName R13
SYMATTR Value 500k
SYMBOL res 2176 1232 R0
SYMATTR InstName R22
SYMATTR Value 500k
SYMBOL res 2464 1312 R0
SYMATTR InstName R23
SYMATTR Value 22k
SYMBOL res 2320 1232 R0
SYMATTR InstName R24
SYMATTR Value 470k
SYMBOL res 2464 1232 R0
SYMATTR InstName R25
SYMATTR Value 470
SYMBOL res 2624 1232 R0
SYMATTR InstName R26
SYMATTR Value 470k
SYMBOL Misc\\triode 2416 1168 R0
WINDOW 3 29 57 Left 0
SYMATTR Value 6SL7GT
SYMATTR InstName U3
SYMBOL Misc\\triode 2560 1168 M0
WINDOW 3 8 -36 Left 0
SYMATTR Value 6SL7GT
SYMATTR InstName U4
SYMBOL cap 2336 1152 R90
WINDOW 0 0 32 VBottom 0
WINDOW 3 32 32 VTop 0
SYMATTR InstName C11
SYMATTR Value .02µ
SYMATTR SpiceLine V=400
SYMBOL res 2400 896 R0
SYMATTR InstName R27
SYMATTR Value 100k
SYMBOL res 2544 896 R0
SYMATTR InstName R28
SYMATTR Value 100k
SYMBOL res 2816 832 R90
WINDOW 0 0 56 VBottom 0
WINDOW 3 32 56 VTop 0
SYMATTR InstName R29
SYMATTR Value 6k8
SYMATTR SpiceLine pwr=1
SYMBOL cap 2752 1248 R0
SYMATTR InstName C16
SYMATTR Value .33µ
SYMATTR SpiceLine V=100
SYMBOL polcap 2656 848 R180
WINDOW 0 24 57 Left 0
WINDOW 3 24 8 Left 0
SYMATTR InstName C17
SYMATTR Value 22µ
SYMATTR SpiceLine V=450
SYMBOL Misc\\triode 3216 992 R0
WINDOW 3 -14 133 Left 0
SYMATTR Value 6SN7GTB
SYMATTR InstName U5
SYMBOL Misc\\triode 3216 1248 M180
WINDOW 3 8 -92 Left 0
SYMATTR Value 6SN7GTB
SYMATTR InstName U6
SYMBOL res 3168 1104 R90
WINDOW 0 0 56 VBottom 0
WINDOW 3 32 56 VTop 0
SYMATTR InstName R2
SYMATTR Value 820
SYMATTR SpiceLine pwr=2
SYMBOL res 3152 1232 R90
WINDOW 0 0 56 VBottom 0
WINDOW 3 32 56 VTop 0
SYMATTR InstName R6
SYMATTR Value 2k2
SYMBOL res 3152 976 R90
WINDOW 0 0 56 VBottom 0
WINDOW 3 32 56 VTop 0
SYMATTR InstName R7
SYMATTR Value 2k2
SYMBOL res 3040 1104 R180
WINDOW 0 36 76 Left 0
WINDOW 3 36 40 Left 0
SYMATTR InstName R14
SYMATTR Value 220k
SYMBOL res 3040 1248 R180
WINDOW 0 36 76 Left 0
WINDOW 3 36 40 Left 0
SYMATTR InstName R15
SYMATTR Value 220k
SYMBOL cap 2896 1008 R270
WINDOW 0 32 32 VTop 0
WINDOW 3 0 32 VBottom 0
SYMATTR InstName C2
SYMATTR Value .1µ
SYMATTR SpiceLine V=400
SYMBOL cap 2896 1264 R270
WINDOW 0 32 32 VTop 0
WINDOW 3 0 32 VBottom 0
SYMATTR InstName C5
SYMATTR Value .1µ
SYMATTR SpiceLine V=400
SYMBOL ind2 3360 1008 R0
SYMATTR InstName L4
SYMATTR Value {M**2 * 1H}
SYMATTR Type ind
SYMBOL ind2 3360 1088 R0
SYMATTR InstName L5
SYMATTR Value {M**2 * 1H}
SYMATTR Type ind
SYMBOL ind2 3488 1168 R180
WINDOW 0 36 80 Left 0
WINDOW 3 36 40 Left 0
SYMATTR InstName L6
SYMATTR Value 1H
SYMATTR Type ind
SYMBOL Misc\\tuberectifier 3584 1104 R0
SYMATTR InstName U7
SYMATTR Value G12M
SYMBOL res 3536 960 R0
SYMATTR InstName R16
SYMATTR Value 500Meg
SYMBOL res 3536 1136 R0
SYMATTR InstName R17
SYMATTR Value 500Meg
TEXT 2104 584 Left 0 ;Moonlight
TEXT 1992 872 Left 0 ;230v
TEXT 2616 872 Left 0 ;250V
TEXT 3088 872 Left 0 ;280V
TEXT 3496 864 Left 0 ;300V
TEXT 2096 472 Left 0 !.tran 30
TEXT 2096 408 Left 0 !.option plotwinsize=0
TEXT 2096 376 Left 0 !K1 L1 L2 L3 1 ; unity coupling
TEXT 2240 440 Center 0 !.param N=1.09 ; turns ratio
TEXT 2096 344 Left 0 !.inc Rydel_tubes.lib
TEXT 2104 496 Left 0 !.param M=1.09 ; turns ratio
TEXT 1784 1312 Left 0 ;1V
TEXT 1816 1168 Left 0 ;100v
TEXT 1928 1248 Left 0 ;50v
TEXT 2160 1432 Left 0 ;Volume\n1M
TEXT 2408 1264 Left 0 ;43V
TEXT 2464 1056 Left 0 ;145V
TEXT 2616 872 Left 0 ;250V
TEXT 3192 1080 Left 0 ;7.7V
TEXT 3672 1072 Left 0 ;6800:8 Ohms
TEXT 3648 1104 Left 0 ;Hammond 125C,125D, etc.
TEXT 3384 952 Left 0 ;brown
TEXT 3384 1336 Left 0 ;blue
TEXT 3312 1120 Left 0 ;red
TEXT 2096 520 Left 0 !.inc g12m.inc
