Version 4
SHEET 1 2136 1236
WIRE 576 -112 560 -112
WIRE 608 -112 576 -112
WIRE 656 -112 608 -112
WIRE 704 -112 656 -112
WIRE 720 -112 704 -112
WIRE 128 16 -16 16
WIRE 224 16 128 16
WIRE 720 16 224 16
WIRE 336 80 320 80
WIRE 448 80 416 80
WIRE 496 80 448 80
WIRE 656 80 496 80
WIRE 720 80 656 80
WIRE 656 96 656 80
WIRE 672 96 656 96
WIRE 128 128 128 96
WIRE 704 144 704 -112
WIRE 720 144 704 144
WIRE 672 176 640 176
WIRE 400 192 272 192
WIRE 128 208 128 192
WIRE 496 272 400 272
WIRE 592 272 576 272
WIRE 656 272 592 272
WIRE 720 272 704 272
WIRE 224 320 224 16
WIRE 672 336 672 176
WIRE 720 336 672 336
WIRE 720 400 480 400
WIRE 656 464 656 272
WIRE 720 464 656 464
WIRE 480 480 480 400
WIRE 480 480 224 480
WIRE 144 576 80 576
WIRE 224 576 224 560
FLAG 400 352 0
FLAG 592 352 0
FLAG 80 576 0
FLAG -16 96 0
FLAG 128 208 0
FLAG 320 80 0
FLAG 496 144 0
FLAG 448 144 0
FLAG 496 -112 0
FLAG 608 -48 0
FLAG 656 -48 0
FLAG 704 272 0
FLAG 640 240 0
FLAG 272 272 0
SYMBOL res 384 176 R0
SYMATTR InstName R1
SYMATTR Value .01
SYMBOL res 384 256 R0
SYMATTR InstName R2
SYMATTR Value 25k
SYMBOL res 592 256 R90
WINDOW 0 0 56 VBottom 0
WINDOW 3 32 56 VTop 0
SYMATTR InstName R3
SYMATTR Value 1k
SYMBOL res 576 256 R0
SYMATTR InstName R4
SYMATTR Value 22k
SYMBOL res 112 0 R0
SYMATTR InstName R7
SYMATTR Value 2.7
SYMATTR SpiceLine pwr=2
SYMBOL cap 112 128 R0
SYMATTR InstName C2
SYMATTR Value .1µ
SYMBOL res -32 0 R0
SYMATTR InstName R8
SYMATTR Value 8
SYMBOL voltage 432 80 R90
WINDOW 0 -32 56 VBottom 0
WINDOW 3 32 56 VTop 0
WINDOW 123 0 0 Left 0
WINDOW 39 0 0 Left 0
SYMATTR InstName V1
SYMATTR Value -42
SYMBOL cap 480 80 R0
WINDOW 3 -5 93 Left 0
SYMATTR Value 100µ
SYMATTR InstName C3
SYMBOL cap 432 80 R0
WINDOW 0 24 13 Left 0
WINDOW 3 -3 95 Left 0
SYMATTR InstName C4
SYMATTR Value .1µ
SYMBOL voltage 592 -112 R90
WINDOW 0 -32 56 VBottom 0
WINDOW 3 32 56 VTop 0
WINDOW 123 0 0 Left 0
WINDOW 39 0 0 Left 0
SYMATTR InstName V2
SYMATTR Value 42
SYMBOL cap 592 -112 R0
WINDOW 3 -3 95 Left 0
SYMATTR Value .1µ
SYMATTR InstName C5
SYMBOL cap 640 -112 R0
WINDOW 3 -3 96 Left 0
SYMATTR Value 100µF
SYMATTR InstName C6
SYMBOL res 656 80 R0
WINDOW 0 -31 37 Left 0
WINDOW 3 -43 64 Left 0
SYMATTR InstName R9
SYMATTR Value 10k
SYMBOL cap 624 176 R0
WINDOW 0 -27 9 Left 0
WINDOW 3 -48 32 Left 0
SYMATTR InstName C7
SYMATTR Value 100µ
SYMBOL Misc\\DIP11 864 -16 R0
WINDOW 3 0 -116 Center 0
SYMATTR Value LM3886
SYMATTR InstName U1
SYMBOL voltage 272 176 R0
WINDOW 123 24 132 Left 0
WINDOW 39 0 0 Left 0
SYMATTR Value2 AC 1
SYMATTR InstName V3
SYMATTR Value SINE(0 1 400)
SYMBOL res 208 384 R0
SYMATTR InstName R10
SYMATTR Value {Y}
SYMBOL res 208 464 R0
SYMATTR InstName R11
SYMATTR Value {10k-Y}
SYMBOL res 240 560 R90
WINDOW 0 0 56 VBottom 0
WINDOW 3 32 56 VTop 0
SYMATTR InstName R12
SYMATTR Value 1k
SYMBOL res 208 304 R0
SYMATTR InstName R5
SYMATTR Value 10k
TEXT 272 168 Left 0 ;Audio In
TEXT -248 56 Left 0 ;Audio Out (speaker)
TEXT 1064 -536 Left 0 !.SUBCKT LM3886 posrail NC  out           negrail posrail NC gndpin mute   negin posin NC\n*                             VCC    NC  OUTPUT VEE     VCC   NC GND    MUTE IN-    IN+    NC\n*\n* LM3886 spice model by teemuk 21032007 ver.1b\nQ1 posrail posin N004 0 NPN\nI1 N004 negrail 0.25m\nQ2 posrail negin N003 0 NPN\nI2 N003 negrail 0.25m\nQ3 N011 N003 N010 0 PNP\nQ4 N011 N018 N012 0 NPN\nR1 N012 negrail 2.2k\nI3 N018 negrail 0.1m\nQ5 N017 N018 N024 0 NPN\nR2 N024 negrail 2.2k\nQ6 posrail N011 N018 0 NPN\nR3 N009 N010 1.1k\nR4 N009 N023 1.1k\nQ7 N017 N004 N023 0 PNP\nQ8 N017 N013 N016 0 PNP\nQ9 N011 N025 N019 0 PNP\nR5 N015 N016 4.7k\nR6 N015 N019 4.7k\nR7 N013 gndpin 10k\nD1 N025 gndpin D\nD2 gndpin N025 D\nR8 out N025 10k\nC1 out N017 10p\nI4 N026 negrail 1m\nQ10 posrail N017 N026 0 NPN\nQ11 N030 N026 N031 0 NPN\nR9 N031 negrail 800\nQ12 N009 N008 N014 0 PNP\nQ13 N015 N022 N014 0 PNP\nI5 posrail N014 1m\nI6 N022 negrail 1m\nD3 N021 N022 D\nD4 N020 N021 D\nR10 posrail N020 1k\nD5 N007 N008 D\nD6 N006 N007 D\nR11 posrail N006 1k\nQ14 N008 gndpin N005 0 NPN\nR12 N005 N001 1k\nD7 N002 mute D\nD8 N001 N002 D\nD9 N032 N031 D\nR13 N034 negrail 150\nQ15 out N032 N034 0 NPN\nQ16 out N034 N036 0 NPN\nR14 N036 negrail 0.45\nQ17 N032 N030 out 0 PNP\nD10 N029 N030 D\nD11 N028 N029 D\nD12 N027 N028 D\nR15 N033 out 150\nQ18 posrail N027 N033 0 NPN\nQ19 posrail N033 N035 0 NPN\nR16 N035 out 0.45\nI7 posrail N027 2.5m\n.model D D\n.model NPN NPN\n.model PNP PNP\n.end lm3886
TEXT -160 288 Left 0 !.tran 0 1 .9
TEXT -272 312 Left 0 !.step param Y list .001 9.999999k
TEXT -216 456 Left 0 ;Variable Resistor 10k Good quality
