Version 4
SHEET 1 3184 12072
WIRE -864 -1440 -928 -1440
WIRE -768 -1440 -864 -1440
WIRE -544 -1440 -768 -1440
WIRE -272 -1440 -464 -1440
WIRE 64 -1440 -272 -1440
WIRE 912 -1440 64 -1440
WIRE -864 -1344 -864 -1360
WIRE -704 -1344 -864 -1344
WIRE -592 -1328 -688 -1328
WIRE -368 -1328 -512 -1328
WIRE -272 -1328 -272 -1360
WIRE -240 -1328 -272 -1328
WIRE 32 -1328 -48 -1328
WIRE 64 -1328 64 -1360
WIRE 64 -1328 32 -1328
WIRE 128 -1328 64 -1328
WIRE 768 -1312 608 -1312
WIRE 944 -1312 768 -1312
WIRE -864 -1280 -864 -1344
WIRE -768 -1280 -768 -1440
WIRE -176 -1248 -528 -1248
WIRE -1040 -1232 -1104 -1232
WIRE -992 -1232 -1040 -1232
WIRE -912 -1232 -928 -1232
WIRE -704 -1232 -704 -1344
WIRE -704 -1232 -720 -1232
WIRE 528 -1216 352 -1216
WIRE 704 -1216 528 -1216
WIRE 608 -1200 608 -1312
WIRE 768 -1200 768 -1312
WIRE 1376 -1200 1312 -1200
WIRE -1040 -1184 -1040 -1232
WIRE -688 -1184 -688 -1328
WIRE -688 -1184 -736 -1184
WIRE -608 -1184 -624 -1184
WIRE -528 -1184 -528 -1248
WIRE -432 -1184 -448 -1184
WIRE -368 -1184 -368 -1328
WIRE 1376 -1184 1376 -1200
WIRE 32 -1168 32 -1248
WIRE 144 -1168 32 -1168
WIRE 224 -1168 208 -1168
WIRE 352 -1168 352 -1216
WIRE 352 -1168 224 -1168
WIRE 944 -1168 944 -1312
WIRE 992 -1168 944 -1168
WIRE 1312 -1168 1312 -1200
WIRE 1312 -1168 1216 -1168
WIRE 672 -1152 656 -1152
WIRE 832 -1152 816 -1152
WIRE 560 -1136 528 -1136
WIRE 720 -1136 704 -1136
WIRE -928 -1104 -928 -1232
WIRE -928 -1104 -1040 -1104
WIRE -896 -1104 -896 -1184
WIRE -736 -1104 -736 -1184
WIRE -688 -1104 -688 -1184
WIRE -368 -1104 -368 -1120
WIRE -368 -1104 -432 -1104
WIRE 992 -1104 928 -1104
WIRE 1264 -1104 1216 -1104
WIRE 512 -1088 512 -1104
WIRE 576 -1088 512 -1088
WIRE 736 -1088 576 -1088
WIRE 1264 -1088 1264 -1104
WIRE 1296 -1088 1264 -1088
WIRE 1344 -1088 1296 -1088
WIRE 352 -1072 352 -1088
WIRE 352 -1072 336 -1072
WIRE 432 -1072 432 -1104
WIRE 432 -1072 352 -1072
WIRE 832 -1072 672 -1072
WIRE 912 -1072 912 -1440
WIRE 912 -1072 832 -1072
WIRE 352 -1056 352 -1072
WIRE 576 -1056 576 -1088
WIRE 736 -1056 736 -1088
WIRE 224 -1040 224 -1088
WIRE 992 -1040 944 -1040
WIRE -896 -1024 -1040 -1024
WIRE -736 -1024 -896 -1024
WIRE -688 -1024 -736 -1024
WIRE -624 -1024 -688 -1024
WIRE -432 -1024 -624 -1024
WIRE -368 -1024 -432 -1024
WIRE -624 -1008 -624 -1024
WIRE 432 -1008 432 -1072
WIRE 512 -1008 512 -1088
WIRE 512 -1008 496 -1008
WIRE 560 -1008 544 -1008
WIRE 720 -1008 704 -1008
WIRE 672 -992 656 -992
WIRE 832 -992 816 -992
WIRE 128 -976 128 -1248
WIRE 224 -976 192 -976
WIRE 352 -976 224 -976
WIRE -1104 -960 -1104 -1232
WIRE -368 -960 -1104 -960
WIRE -368 -944 -368 -960
WIRE 352 -928 352 -976
WIRE 544 -928 352 -928
WIRE 704 -928 544 -928
WIRE -800 -880 -848 -880
WIRE -736 -880 -800 -880
WIRE -432 -880 -656 -880
WIRE 608 -880 608 -944
WIRE 768 -880 768 -944
WIRE 768 -880 608 -880
WIRE 944 -880 944 -1040
WIRE 944 -880 768 -880
WIRE -432 -864 -432 -880
WIRE -480 -848 -528 -848
WIRE -432 -848 -432 -864
WIRE -368 -816 -368 -880
WIRE -368 -816 -384 -816
WIRE -352 -816 -368 -816
WIRE -272 -816 -272 -1328
WIRE -528 -800 -528 -848
WIRE 32 -800 32 -1168
WIRE 128 -800 128 -976
WIRE -608 -752 -608 -800
WIRE -608 -752 -624 -752
WIRE -176 -752 -176 -1248
WIRE -112 -752 -176 -752
WIRE -16 -752 -48 -752
WIRE 224 -752 176 -752
WIRE 320 -752 288 -752
WIRE -368 -720 -384 -720
WIRE -352 -720 -368 -720
WIRE -272 -720 -272 -816
WIRE -608 -704 -608 -752
WIRE -528 -704 -528 -800
WIRE -528 -704 -544 -704
WIRE -528 -688 -528 -704
WIRE -480 -688 -528 -688
WIRE 368 -688 352 -688
WIRE 448 -688 432 -688
WIRE 528 -688 512 -688
WIRE 608 -688 592 -688
WIRE -432 -672 -432 -688
WIRE -16 -672 -16 -752
WIRE 0 -672 0 -704
WIRE 80 -672 0 -672
WIRE 160 -672 160 -704
WIRE 160 -672 80 -672
WIRE 176 -672 176 -752
WIRE -800 -656 -848 -656
WIRE -736 -656 -800 -656
WIRE -432 -656 -432 -672
WIRE -432 -656 -656 -656
WIRE 352 -656 352 -688
WIRE 80 -592 -16 -592
WIRE 176 -592 80 -592
WIRE -176 -576 -176 -672
WIRE -176 -576 -368 -576
WIRE 80 -576 80 -592
WIRE 320 -576 320 -752
WIRE 352 -576 320 -576
WIRE 432 -576 432 -688
WIRE 512 -576 512 -688
WIRE 592 -576 592 -688
WIRE 80 -496 -368 -496
WIRE 352 -496 80 -496
WIRE 432 -496 352 -496
WIRE 512 -496 432 -496
WIRE 592 -496 512 -496
WIRE 80 -480 80 -496
WIRE -320 -432 -416 -432
WIRE 224 -432 -320 -432
WIRE 592 -432 224 -432
WIRE -112 -352 -320 -352
WIRE -64 -352 -112 -352
WIRE 224 -336 224 -352
WIRE 224 -336 176 -336
WIRE 288 -336 224 -336
WIRE 672 -336 672 -688
WIRE 672 -336 288 -336
WIRE -416 -320 -416 -352
WIRE -240 -320 -416 -320
WIRE 288 -320 288 -336
WIRE -112 -272 -112 -288
WIRE -64 -272 -64 -288
WIRE 288 -256 176 -256
WIRE -240 -240 -240 -320
WIRE -416 -224 -416 -240
WIRE -320 -224 -320 -352
WIRE 480 -192 -64 -192
WIRE -592 -176 -624 -176
WIRE -464 -176 -512 -176
WIRE -240 -176 -272 -176
WIRE -192 -176 -240 -176
WIRE 176 -160 176 -176
WIRE 288 -160 288 -176
WIRE -112 -112 -112 -192
WIRE 0 -112 -112 -112
WIRE 96 -112 64 -112
WIRE 128 -112 96 -112
WIRE 368 -112 336 -112
WIRE 400 -112 368 -112
WIRE 480 -112 480 -192
WIRE 480 -112 464 -112
WIRE -288 -96 -288 -128
WIRE -192 -96 -192 -176
WIRE 144 -32 144 -64
WIRE 240 -32 144 -32
WIRE 320 -32 320 -64
WIRE 320 -32 240 -32
WIRE -208 -16 -288 -16
WIRE -192 -16 -208 -16
WIRE -144 -16 -192 -16
WIRE -32 -16 -144 -16
WIRE 32 -16 -32 -16
WIRE -208 0 -208 -16
WIRE 32 0 32 -16
WIRE 96 16 96 -32
WIRE 128 16 96 16
WIRE 368 16 368 -32
WIRE 368 16 336 16
WIRE 480 16 480 -48
WIRE -592 64 -592 -176
WIRE -448 64 -448 -128
WIRE -448 64 -512 64
WIRE -288 64 -288 -16
WIRE -144 64 -208 64
WIRE -112 64 -112 -112
WIRE -112 64 -144 64
WIRE -64 64 -64 -192
WIRE -32 64 -64 64
WIRE 32 64 -32 64
WIRE 96 64 96 16
WIRE 240 64 240 -32
WIRE 368 64 368 16
WIRE -512 80 -512 64
WIRE -208 80 -208 64
WIRE 32 80 32 64
WIRE 912 112 912 -1072
WIRE 912 112 672 112
WIRE 928 128 928 -1104
WIRE 928 128 752 128
WIRE -512 144 -592 144
WIRE -448 144 -512 144
WIRE -288 144 -448 144
WIRE -208 144 -288 144
WIRE -144 144 -208 144
WIRE -32 144 -144 144
WIRE 32 144 -32 144
WIRE 96 144 32 144
WIRE 240 144 96 144
WIRE 288 144 240 144
WIRE 368 144 288 144
WIRE 480 144 368 144
WIRE 288 160 288 144
WIRE 240 256 -192 256
WIRE 592 256 592 -432
WIRE 592 256 240 256
WIRE 672 256 672 112
WIRE 752 256 752 128
WIRE 848 256 832 256
WIRE 960 256 960 240
WIRE 960 256 928 256
WIRE 128 272 128 16
WIRE 672 304 672 256
WIRE 752 304 752 256
WIRE -192 336 -528 336
WIRE -160 336 -192 336
WIRE 0 336 -16 336
WIRE 240 336 128 336
WIRE -192 368 -192 336
WIRE 240 368 240 336
WIRE -528 416 -528 336
WIRE -448 416 -464 416
WIRE -368 416 -384 416
WIRE -240 416 -304 416
WIRE 64 416 0 416
WIRE 192 416 128 416
WIRE 672 464 672 368
WIRE 752 464 752 368
WIRE 752 464 672 464
WIRE 960 464 960 256
WIRE 960 464 752 464
WIRE 976 464 960 464
WIRE 0 480 0 416
WIRE 752 480 752 464
WIRE 976 480 976 464
WIRE -448 496 -464 496
WIRE -304 496 -448 496
WIRE 208 496 208 464
WIRE 336 512 336 16
WIRE -368 544 -368 416
WIRE -368 544 -416 544
WIRE -352 544 -368 544
WIRE -304 544 -352 544
WIRE -416 576 -416 560
WIRE -352 576 -352 544
WIRE -304 576 -304 560
WIRE -224 576 -224 464
WIRE -160 576 -224 576
WIRE 0 576 0 560
WIRE 128 576 128 496
WIRE 208 576 128 576
WIRE 336 576 208 576
WIRE -160 592 -160 576
WIRE -80 592 -80 336
WIRE 64 592 64 416
WIRE -464 624 -464 496
WIRE -416 656 -464 656
WIRE -352 656 -416 656
WIRE -304 656 -352 656
WIRE -224 656 -304 656
WIRE -176 656 -224 656
WIRE -160 656 -176 656
WIRE -80 656 -160 656
WIRE 0 656 -80 656
WIRE 64 656 0 656
WIRE 208 656 64 656
WIRE -176 688 -176 656
FLAG -176 688 0
FLAG 288 160 0
FLAG 592 320 0
FLAG 752 480 0
FLAG -704 -176 0
FLAG 80 -480 0
FLAG -48 -1264 0
FLAG -624 -752 0
FLAG -800 -800 0
FLAG -800 -576 0
FLAG -240 -1264 0
FLAG -624 -1008 0
FLAG -928 -1376 0
FLAG 336 -1072 0
FLAG 976 480 0
FLAG 1296 -1008 0
SYMBOL Misc\\triode 176 -112 R0
WINDOW 3 23 58 Left 0
SYMATTR Value NH12AU7
SYMATTR InstName U1
SYMATTR SpiceModel NH12AU7
SYMBOL Misc\\triode 288 -112 M0
WINDOW 3 -24 64 Invisible 0
SYMATTR Value NH12AU7
SYMATTR InstName U2
SYMATTR SpiceModel NH12AU7
SYMBOL res 224 48 R0
WINDOW 3 43 66 Left 0
SYMATTR Value 1.5k
SYMATTR InstName R3
SYMBOL cap 400 -96 R270
WINDOW 0 32 32 VTop 0
WINDOW 3 0 32 VBottom 0
SYMATTR InstName C1
SYMATTR Value .1µ
SYMBOL cap 0 -96 R270
WINDOW 0 32 32 VTop 0
WINDOW 3 0 32 VBottom 0
SYMATTR InstName C2
SYMATTR Value .1µ
SYMBOL res 80 48 R0
SYMATTR InstName R4
SYMATTR Value 1Meg
SYMBOL res 80 -128 R0
SYMATTR InstName R5
SYMATTR Value 470k
SYMBOL res 352 -128 R0
SYMATTR InstName R6
SYMATTR Value 470k
SYMBOL res 352 48 R0
SYMATTR InstName R7
SYMATTR Value 1Meg
SYMBOL res 160 -272 R0
SYMATTR InstName R1
SYMATTR Value 10k
SYMBOL res 272 -272 R0
SYMATTR InstName R2
SYMATTR Value 10k
SYMBOL res 160 -352 R0
SYMATTR InstName R8
SYMATTR Value 47k
SYMBOL cap 272 -320 R0
SYMATTR InstName C3
SYMATTR Value 50n
SYMBOL res 208 -448 R0
SYMATTR InstName R9
SYMATTR Value 15k
SYMBOL res 224 240 R0
SYMATTR InstName R10
SYMATTR Value 22k
SYMBOL Misc\\triode 240 416 R0
WINDOW 3 -24 64 Invisible 0
SYMATTR Value NH12AX7
SYMATTR InstName U3
SYMATTR SpiceModel NH12AX7
SYMBOL res 192 480 R0
SYMATTR InstName R11
SYMATTR Value 1.5k
SYMBOL res 192 560 R0
SYMATTR InstName R12
SYMATTR Value 22k
SYMBOL cap 320 512 R0
SYMATTR InstName C4
SYMATTR Value .1µ
SYMBOL res 112 400 R0
SYMATTR InstName R13
SYMATTR Value 560k
SYMBOL cap 128 432 M270
WINDOW 0 32 32 VTop 0
WINDOW 3 0 32 VBottom 0
SYMATTR InstName C5
SYMATTR Value .1µ
SYMBOL cap 48 592 R0
SYMATTR InstName C6
SYMATTR Value 22n
SYMBOL res -16 320 R0
SYMATTR InstName R14
SYMATTR Value 150k
SYMBOL res -16 560 R0
SYMATTR InstName R15
SYMATTR Value 150k
SYMBOL res -16 464 R0
SYMATTR InstName R16
SYMATTR Value 500k
SYMBOL cap -16 352 M270
WINDOW 0 32 32 VTop 0
WINDOW 3 0 32 VBottom 0
SYMATTR InstName C7
SYMATTR Value .1µ
SYMBOL cap -96 592 R0
SYMATTR InstName C8
SYMATTR Value .1µ
SYMBOL res -64 352 M270
WINDOW 0 32 56 VTop 0
WINDOW 3 0 56 VBottom 0
SYMATTR InstName R17
SYMATTR Value 220k
SYMBOL Misc\\triode -192 416 R0
WINDOW 3 -10 61 Left 0
SYMATTR Value NH12AX7
SYMATTR InstName U4
SYMATTR SpiceModel NH12AX7
SYMBOL res -208 240 R0
SYMATTR InstName R18
SYMATTR Value 270k
SYMBOL res -240 560 R0
SYMATTR InstName R19
SYMATTR Value 3.9k
SYMBOL cap -176 592 R0
SYMATTR InstName C9
SYMATTR Value 25µ
SYMATTR SpiceLine V=25
SYMBOL res -320 400 R0
SYMATTR InstName R20
SYMATTR Value 1Meg
SYMBOL cap -368 432 R270
WINDOW 0 32 32 VTop 0
WINDOW 3 0 32 VBottom 0
SYMATTR InstName C10
SYMATTR Value .01µ
SYMBOL cap -448 432 R270
WINDOW 0 32 32 VTop 0
WINDOW 3 0 32 VBottom 0
SYMATTR InstName C11
SYMATTR Value .01µ
SYMBOL cap -528 432 R270
WINDOW 0 32 32 VTop 0
WINDOW 3 0 32 VBottom 0
SYMATTR InstName C12
SYMATTR Value .01µ
SYMBOL res -464 400 R0
SYMATTR InstName R21
SYMATTR Value 1Meg
SYMBOL res -368 560 R0
SYMATTR InstName R22
SYMATTR Value 560k
SYMBOL res -320 560 R0
SYMATTR InstName R23
SYMATTR Value 1Meg
SYMBOL res -432 560 R0
SYMATTR InstName R24
SYMATTR Value 330k
SYMBOL cap 464 -112 R0
SYMATTR InstName C13
SYMATTR Value .1µ
SYMBOL cap 112 272 R0
SYMATTR InstName C14
SYMATTR Value .1µ
SYMBOL polcap 576 256 R0
SYMATTR InstName C15
SYMATTR Value 32µ
SYMBOL res 576 272 R270
WINDOW 0 32 56 VTop 0
WINDOW 3 0 56 VBottom 0
SYMATTR InstName R25
SYMATTR Value 22k
SYMBOL ind2 768 240 R90
WINDOW 0 5 56 VBottom 0
WINDOW 3 32 56 VTop 0
SYMATTR InstName L1
SYMATTR Value 800m
SYMATTR Type ind
SYMATTR SpiceLine Ipk=100
SYMBOL polcap 656 304 R0
SYMATTR InstName C16
SYMATTR Value 32µ
SYMATTR SpiceLine V=450
SYMBOL polcap 736 304 R0
SYMATTR InstName C17
SYMATTR Value 32µ
SYMATTR SpiceLine V=450
SYMBOL res 848 240 R90
WINDOW 0 0 56 VBottom 0
WINDOW 3 32 56 VTop 0
SYMATTR InstName R26
SYMATTR Value 47
SYMBOL res -80 -288 R0
SYMATTR InstName R28
SYMATTR Value 68k
SYMBOL cap -80 -352 R0
SYMATTR InstName C18
SYMATTR Value 2.2n
SYMBOL cap 16 80 R0
SYMATTR InstName C19
SYMATTR Value 750p
SYMBOL res -48 48 R0
SYMATTR InstName R29
SYMATTR Value 180k
SYMBOL cap 16 0 R0
SYMATTR InstName C20
SYMATTR Value 500p
SYMBOL res -48 -32 R0
SYMATTR InstName R30
SYMATTR Value 330k
SYMBOL res -160 48 R0
SYMATTR InstName R31
SYMATTR Value 180k
SYMBOL res -160 -32 R0
SYMATTR InstName R32
SYMATTR Value 330k
SYMBOL cap -224 80 R0
SYMATTR InstName C21
SYMATTR Value 200p
SYMBOL cap -224 0 R0
SYMATTR InstName C22
SYMATTR Value 100p
SYMBOL res -96 -288 M0
SYMATTR InstName R33
SYMATTR Value 68k
SYMBOL cap -96 -352 M0
SYMATTR InstName C23
SYMATTR Value 500p
SYMBOL res -304 48 R0
SYMATTR InstName R34
SYMATTR Value 22k
SYMBOL res -208 -112 R0
SYMATTR InstName R35
SYMATTR Value 1Meg
SYMBOL Misc\\triode -320 -176 M0
WINDOW 3 -24 64 Invisible 0
SYMATTR Value NH12AX7
SYMATTR InstName U5
SYMATTR SpiceModel NH12AX7
SYMBOL res -304 -112 R0
SYMATTR InstName R36
SYMATTR Value 2.2k
SYMBOL cap -256 -240 R0
SYMATTR InstName C24
SYMATTR Value .01µ
SYMBOL res -336 -448 R0
SYMATTR InstName R37
SYMATTR Value 22k
SYMBOL Misc\\triode -416 -176 R0
WINDOW 3 -24 64 Invisible 0
SYMATTR Value NH12AX7
SYMATTR InstName U6
SYMATTR SpiceModel NH12AX7
SYMBOL res -432 -448 R0
SYMATTR InstName R38
SYMATTR Value 100k
SYMBOL res -432 -336 R0
SYMATTR InstName R39
SYMATTR Value 47k
SYMBOL res -464 48 R0
SYMATTR InstName R40
SYMATTR Value 2.2k
SYMBOL cap -528 80 R0
SYMATTR InstName C25
SYMATTR Value 25µ
SYMATTR SpiceLine V=25
SYMBOL res -496 -192 R90
WINDOW 0 0 56 VBottom 0
WINDOW 3 32 56 VTop 0
SYMATTR InstName R41
SYMATTR Value 68k
SYMBOL res -608 48 R0
SYMATTR InstName R42
SYMATTR Value 1Meg
SYMBOL voltage -608 -176 R90
WINDOW 0 -32 56 VBottom 0
WINDOW 3 32 56 Invisible 0
WINDOW 39 0 0 Left 0
SYMATTR InstName V2
SYMATTR Value SINE(0 .15 300)
SYMATTR Value2 AC 1
SYMBOL res 576 -592 R0
SYMATTR InstName R43
SYMATTR Value 1Meg
SYMBOL cap 672 -672 M270
WINDOW 0 32 32 VTop 0
WINDOW 3 0 32 VBottom 0
SYMATTR InstName C26
SYMATTR Value 4.7n
SYMBOL cap 592 -672 M270
WINDOW 0 32 32 VTop 0
WINDOW 3 0 32 VBottom 0
SYMATTR InstName C27
SYMATTR Value 4.7n
SYMBOL cap 512 -672 M270
WINDOW 0 32 32 VTop 0
WINDOW 3 0 32 VBottom 0
SYMATTR InstName C28
SYMATTR Value 4.7n
SYMBOL cap 432 -672 M270
WINDOW 0 32 32 VTop 0
WINDOW 3 0 32 VBottom 0
SYMATTR InstName C29
SYMATTR Value 4.7n
SYMBOL res 336 -592 R0
SYMATTR InstName R44
SYMATTR Value 500k
SYMBOL res 416 -592 R0
SYMATTR InstName R45
SYMATTR Value 1Meg
SYMBOL res 496 -592 R0
SYMATTR InstName R46
SYMATTR Value 1Meg
SYMBOL res 336 -672 R0
SYMATTR InstName R47
SYMATTR Value .01
SYMBOL res 64 -592 R0
SYMATTR InstName R48
SYMATTR Value 47k
SYMBOL res 64 -688 R0
SYMATTR InstName R49
SYMATTR Value 1.2k
SYMBOL res 160 -688 R0
SYMATTR InstName R50
SYMATTR Value 1Meg
SYMBOL res 0 -688 M0
SYMATTR InstName R51
SYMATTR Value 1Meg
SYMBOL Misc\\triode 128 -752 M0
WINDOW 3 -24 64 Invisible 0
SYMATTR Value NH12AX7
SYMATTR InstName U7
SYMATTR SpiceModel NH12AX7
SYMBOL Misc\\triode 32 -752 R0
WINDOW 3 -24 64 Invisible 0
SYMATTR Value NH12AX7
SYMATTR InstName U8
SYMATTR SpiceModel NH12AX7
SYMBOL cap 288 -768 R90
WINDOW 0 0 32 VBottom 0
WINDOW 3 32 32 VTop 0
SYMATTR InstName C30
SYMATTR Value .047µ
SYMBOL cap -48 -768 R90
WINDOW 0 0 32 VBottom 0
WINDOW 3 32 32 VTop 0
SYMATTR InstName C31
SYMATTR Value .047µ
SYMBOL res 16 -1344 R0
SYMATTR InstName R53
SYMATTR Value 100k
SYMBOL res 112 -1344 R0
SYMATTR InstName R54
SYMATTR Value 100k
SYMBOL polcap -64 -1328 R0
SYMATTR InstName C32
SYMATTR Value 8µ
SYMBOL res 48 -1456 R0
SYMATTR InstName R55
SYMATTR Value 22k
SYMBOL res -192 -768 R0
SYMATTR InstName R56
SYMATTR Value 220k
SYMBOL res -384 -672 R0
SYMATTR InstName R57
SYMATTR Value .001
SYMBOL res -384 -592 R0
SYMATTR InstName R58
SYMATTR Value 500k
SYMBOL cap -384 -720 R0
WINDOW 0 -23 57 Left 0
SYMATTR InstName C33
SYMATTR Value .047µ
SYMBOL Misc\\triode -432 -720 M270
WINDOW 0 -12 29 Left 0
WINDOW 3 -24 64 Invisible 0
SYMATTR InstName U9
SYMATTR Value NH12AX7
SYMATTR SpiceModel NH12AX7
SYMBOL Misc\\triode -432 -816 R90
WINDOW 0 -22 30 Left 0
WINDOW 3 -24 64 Invisible 0
SYMATTR InstName U10
SYMATTR Value NH12AX7
SYMATTR SpiceModel NH12AX7
SYMBOL res -512 -816 R90
WINDOW 0 0 56 VBottom 0
WINDOW 3 32 56 VTop 0
SYMATTR InstName R59
SYMATTR Value 1.5k
SYMBOL cap -544 -720 R90
WINDOW 0 0 32 VBottom 0
WINDOW 3 32 32 VTop 0
SYMATTR InstName C34
SYMATTR Value 25µ
SYMATTR SpiceLine V=25
SYMBOL res -640 -672 R90
WINDOW 0 0 56 VBottom 0
WINDOW 3 32 56 VTop 0
SYMATTR InstName R60
SYMATTR Value 68k
SYMBOL res -640 -896 R90
WINDOW 0 0 56 VBottom 0
WINDOW 3 32 56 VTop 0
SYMATTR InstName R61
SYMATTR Value 68k
SYMBOL res -816 -896 R0
SYMATTR InstName R62
SYMATTR Value 1Meg
SYMBOL res -816 -672 R0
SYMATTR InstName R63
SYMATTR Value 1Meg
SYMBOL res -256 -736 R90
WINDOW 0 0 56 VBottom 0
WINDOW 3 32 56 VTop 0
SYMATTR InstName R65
SYMATTR Value 220k
SYMBOL res -256 -832 R90
WINDOW 0 0 56 VBottom 0
WINDOW 3 32 56 VTop 0
SYMATTR InstName R66
SYMATTR Value 220k
SYMBOL res -288 -1456 R0
SYMATTR InstName R67
SYMATTR Value 22k
SYMBOL polcap -256 -1328 R0
SYMATTR InstName C35
SYMATTR Value 8
SYMBOL cap -384 -944 R0
SYMATTR InstName C36
SYMATTR Value .5n
SYMBOL res -384 -1120 R0
SYMATTR InstName R68
SYMATTR Value 10k
SYMBOL res -416 -1120 M0
SYMATTR InstName R69
SYMATTR Value 1Meg
SYMBOL res -416 -1200 M0
WINDOW 0 36 52 Left 0
SYMATTR InstName R70
SYMATTR Value .001
SYMBOL cap -384 -1184 R0
WINDOW 0 37 25 Left 0
WINDOW 3 26 52 Left 0
SYMATTR InstName C37
SYMATTR Value .022µ
SYMBOL cap -432 -1168 R270
WINDOW 0 54 30 VTop 0
WINDOW 3 57 32 VBottom 0
SYMATTR InstName C38
SYMATTR Value .022µ
SYMBOL res -544 -1168 R270
WINDOW 0 56 58 VTop 0
WINDOW 3 58 58 VBottom 0
SYMATTR InstName R71
SYMATTR Value .0001
SYMBOL res -624 -1168 R270
WINDOW 0 58 58 VTop 0
WINDOW 3 60 58 VBottom 0
SYMATTR InstName R72
SYMATTR Value 1Meg
SYMBOL cap -688 -1168 R270
WINDOW 0 32 32 VTop 0
WINDOW 3 0 32 VBottom 0
SYMATTR InstName C39
SYMATTR Value .05n
SYMBOL res -608 -1312 R270
WINDOW 0 32 56 VTop 0
WINDOW 3 0 56 VBottom 0
SYMATTR InstName R73
SYMATTR Value 100k
SYMBOL res -704 -1120 R0
SYMATTR InstName R74
SYMATTR Value 56k
SYMBOL Misc\\triode -768 -1232 M0
WINDOW 3 -24 64 Invisible 0
SYMATTR Value NH12AX7
SYMATTR InstName U11
SYMATTR SpiceModel NH12AX7
SYMBOL Misc\\triode -864 -1232 R0
WINDOW 3 -24 64 Invisible 0
SYMATTR Value NH12AX7
SYMATTR InstName U12
SYMATTR SpiceModel NH12AX7
SYMBOL res -720 -1120 M0
SYMATTR InstName R75
SYMATTR Value 56k
SYMBOL res -912 -1120 R0
SYMATTR InstName R76
SYMATTR Value 1.5k
SYMBOL res -880 -1456 R0
SYMATTR InstName R78
SYMATTR Value 100k
SYMBOL res -1056 -1120 R0
SYMATTR InstName R77
SYMATTR Value 500k
SYMBOL res -1056 -1200 R0
SYMATTR InstName R79
SYMATTR Value .001
SYMBOL cap -928 -1248 R90
WINDOW 0 0 32 VBottom 0
WINDOW 3 32 32 VTop 0
SYMATTR InstName C40
SYMATTR Value .1n
SYMBOL polcap -944 -1440 R0
SYMATTR InstName C41
SYMATTR Value 32µ
SYMBOL res -448 -1456 R90
WINDOW 0 0 56 VBottom 0
WINDOW 3 32 56 VTop 0
SYMATTR InstName R80
SYMATTR Value 10k
SYMBOL tetrode 608 -1152 R0
WINDOW 0 -49 -82 Invisible 0
WINDOW 3 -24 -112 Invisible 0
SYMATTR InstName U13
SYMATTR Value ""
SYMATTR SpiceModel 6BQ5
SYMBOL tetrode 768 -992 M180
WINDOW 0 -21 -60 Invisible 0
WINDOW 3 -46 -61 Invisible 0
SYMATTR InstName U15
SYMATTR Value ""
SYMATTR SpiceModel 6BQ5
SYMBOL tetrode 608 -992 M180
WINDOW 0 -21 -60 Invisible 0
WINDOW 3 -46 -61 Invisible 0
SYMATTR InstName U16
SYMATTR Value ""
SYMATTR SpiceModel 6BQ5
SYMBOL tetrode 768 -1152 R0
WINDOW 0 -49 -82 Invisible 0
WINDOW 3 -97 -148 Invisible 0
SYMATTR InstName U14
SYMATTR Value ""
SYMATTR SpiceModel 6BQ5
SYMBOL cap 208 -1184 R90
WINDOW 0 0 32 VBottom 0
WINDOW 3 32 32 VTop 0
SYMATTR InstName C42
SYMATTR Value 150n
SYMBOL cap 192 -992 R90
WINDOW 0 0 32 VBottom 0
WINDOW 3 32 32 VTop 0
SYMATTR InstName C43
SYMATTR Value 150n
SYMBOL res 208 -1184 R0
SYMATTR InstName R64
SYMATTR Value 250k
SYMBOL cap 208 -1040 R0
WINDOW 3 30 53 Left 0
SYMATTR Value 4.7n
SYMATTR InstName C46
SYMBOL res 336 -1184 R0
SYMATTR InstName R81
SYMATTR Value 220k
SYMBOL res 336 -1072 R0
SYMATTR InstName R82
SYMATTR Value 220k
SYMBOL res 528 -1120 R90
WINDOW 0 0 56 VBottom 0
WINDOW 3 32 56 VTop 0
SYMATTR InstName R83
SYMATTR Value 50
SYMBOL polcap 496 -1024 R90
WINDOW 0 0 32 VBottom 0
WINDOW 3 32 32 VTop 0
SYMATTR InstName C47
SYMATTR Value 25
SYMATTR SpiceLine V=25
SYMBOL res 656 -1168 R0
SYMATTR InstName R84
SYMATTR Value 100
SYMBOL res 656 -1088 R0
SYMATTR InstName R85
SYMATTR Value 100
SYMBOL res 816 -1168 R0
SYMATTR InstName R86
SYMATTR Value 100
SYMBOL res 816 -1088 R0
SYMATTR InstName R87
SYMATTR Value 100
SYMBOL res 512 -1232 R0
SYMATTR InstName R88
SYMATTR Value 1.5k
SYMBOL res 688 -1232 R0
SYMATTR InstName R89
SYMATTR Value 1.5k
SYMBOL res 528 -1024 R0
SYMATTR InstName R90
SYMATTR Value 1.5k
SYMBOL res 688 -1024 R0
SYMATTR InstName R91
SYMATTR Value 1.5k
SYMBOL voltage 832 256 R270
WINDOW 0 32 56 VTop 0
WINDOW 3 -32 56 VBottom 0
WINDOW 123 0 0 Left 0
WINDOW 39 0 0 Left 0
SYMATTR InstName V1
SYMATTR Value 390
SYMBOL Misc\\DIP6 1104 -1072 R0
SYMATTR InstName U17
SYMATTR SpiceModel trace15
SYMBOL Misc\\Diode 1376 -1136 R0
SYMATTR InstName U18
SYMATTR Value ""
SYMATTR SpiceModel VINT10
SYMBOL res 1280 -1104 R0
SYMATTR InstName R27
SYMATTR Value 100Meg
TEXT -48 704 Left 0 ;Var 0-500k
TEXT -24 680 Left 0 ;Depth
TEXT -552 592 Left 0 ;Foot Sw
TEXT 456 112 Left 0 ;Tremolo Sw
TEXT 216 -528 Left 0 ;Var 0-500k
TEXT -176 -544 Left 0 ;Var 0-500k
TEXT -584 -1272 Left 0 ;Treble 1Meg
TEXT -616 -1096 Left 0 ;Bass 1Meg
TEXT -1096 -1256 Left 0 ;Var 0-500k
TEXT 184 -1072 Left 0 ;Var 0-250
TEXT 1232 -880 Left 0 !.SUBCKT 6BQ5 A S G K\n*\n* Calculate contribution to cathode current\n*\nBat             at  0           V=0.636*ATAN(V(A,K)/15)\nBgs             gs  0           V=URAMP(V(S,K)/19+V(G,K)+V(A,K)/1400)\nBgs2            gs2 0           V=V(gs)^1.5\nBcath           cc  0           V=V(gs2)*V(at)\n*\n* Calculate anode current\n*\nBa              A   K           I=3.2E-3*V(cc)\n*\n* Calculate screen current\n*\nBscrn           sc  0           V=V(gs2)*(1.1-V(at))\nBs              S   K           I=2.0E-3*V(sc)\n*\n* Grid current (approximation - does not model low va/vs)\n*\nBg              G   K           I=(URAMP(V(G,K)+1)^1.5)*50E-6\n*\n* Capacitances\n*\nCg1             G               K               10.8p\nCak             A               K               6.5p\nCg1a            G               A               0.5p\n \n.ENDS
TEXT 1936 -904 Left 0 !.SUBCKT TRIODE A G K H1 H2\n+PARAMS: RCO=1.6 RHO=10.5 HTV=6.3 HWU=10.5\n+ LIP=1 LIF=3.7E-3 RAF=18E-3 RAS=1 CDO=0 RAP=4E-3\n+ ERP=1.5 \n+ MU0=17.3 MUR=19E-3 EMC=9.6E-6 GCO=0 GCF=213E-6\n+ CGA=3.9p CGK=2.4p CAK=0.7p \n \n* Heater model\n \nRcool H1 HA {RCO}\nRload HA HB 1M\nEsens HD 0  VALUE {V(HA,HB)*1000}\nEpwr  HE 0  VALUE {V(H1,H2)*V(HD)/(PWR({HTV},2)/{RHO})}\nRH1   HE HF 91k\nCH1   HF 0  {HWU/1E6}\nEH2   HG 0  VALUE {V(HF)}\nRH2   HG HH 270k\nCH2   HH 0  {HWU/1E6}\nEH3   HJ 0  VALUE {LIMIT(V(HH)-0.75,0,1E6)*4}\nRH3   HJ HK 91k\nCH3   HK 0  {HWU/1E6}\nGhot  HB H2 VALUE {(1/(V(HG)+0.001))/({RHO}-{RCO})*V(HB,H2)}\n \n* Anode/grid model\n \nElim  LI 0  VALUE {PWR(LIMIT(V(A,K),0,1E6),{LIP})*{LIF}}\nEgg   GG 0  VALUE {V(G,K)-{CDO}}\nErpf  RP 0  VALUE {1-PWR(LIMIT(-V(GG)*{RAF},0,0.999),{RAS})+LIMIT(V(GG),0,1E6)*{RAP}}\nEgr   GR 0  VALUE {LIMIT(V(GG),0,1E6)+LIMIT((V(GG))*(1+V(GG)*{MUR}),0,-1E6)}\nEem   EM 0  VALUE {LIMIT(V(A,K)+V(GR)*{MU0},0,1E6)}\nEep   EP 0  VALUE {PWR(V(EM),ERP)*{EMC}*V(RP)}\nEel   EL 0  VALUE {LIMIT(V(EP),0,V(LI))}\nEld   LD 0  VALUE {LIMIT(V(EP)-V(LI),0,1E6)}\nGa    A  K  VALUE {V(HK)*V(EL)}\n \n \n* Grid current model\n \nEgf   GF 0  VALUE {PWR(LIMIT(V(G,K)-{GCO},0,1E6),1.5)*{GCF}}\nGg    G  K  VALUE {(V(GF)+V(LD))*V(HK)}\nCM1             G               K               {CGK}\nCM2             A               G               {CGA}\nCM3             A               K               {CAK}\nRF1             A               0               1000MEG\nRF2             G               0               1000MEG\nRF3             K               0               1000MEG\n \n.ENDS\n \n.SUBCKT TRIODENH A G K\n+PARAMS: LIP=1 LIF=3.7E-3 RAF=18E-3 RAS=1 CDO=0 RAP=4E-3\n+ ERP=1.5\n+ MU0=17.3 MUR=19E-3 EMC=9.6E-6 GCO=0 GCF=213E-6\n+ CGA=3.9p CGK=2.4p CAK=0.7p \n \n* Anode/grid model\n \nElim  LI 0  VALUE {PWR(LIMIT(V(A,K),0,1E6),{LIP})*{LIF}}\nEgg   GG 0  VALUE {V(G,K)-{CDO}}\nErpf  RP 0  VALUE {1-PWR(LIMIT(-V(GG)*{RAF},0,0.999),{RAS})+LIMIT(V(GG),0,1E6)*{RAP}}\nEgr   GR 0  VALUE {LIMIT(V(GG),0,1E6)+LIMIT((V(GG))*(1+V(GG)*{MUR}),0,-1E6)}\nEem   EM 0  VALUE {LIMIT(V(A,K)+V(GR)*{MU0},0,1E6)}\nEep   EP 0  VALUE {PWR(V(EM),ERP)*{EMC}*V(RP)}\nEel   EL 0  VALUE {LIMIT(V(EP),0,V(LI))}\nEld   LD 0  VALUE {LIMIT(V(EP)-V(LI),0,1E6)}\nGa    A  K  VALUE {V(EL)}\n \n* Grid current model\n \nEgf   GF 0  VALUE {PWR(LIMIT(V(G,K)-{GCO},0,1E6),1.5)*{GCF}}\nGg    G  K  VALUE {(V(GF)+V(LD))}\nCM1             G               K               {CGK}\nCM2             A               G               {CGA}\nCM3             A               K               {CAK}\nRF1             A               0               1000MEG\nRF2             G               0               1000MEG\nRF3             K               0               1000MEG\n \n.ENDS\n \n**********************************************************************\n* GENERIC: 12AU7 / ECC82\n* MODEL:   NH12AU7\n* NOTES:   No heater model\n**********************************************************************\n.SUBCKT NH12AU7 A G K\nXV1 A G K TRIODENH\n+PARAMS: LIP= 1 LIF= 0.0037 RAF= 0.000001 RAS= 2.065382774 CDO= 0 \n+ RAP= 0.18 ERP= 1.4 \n+ MU0= 17.08958652 MUR= 0.010938375 EMC= 0.0000183 \n+ GCO= 0 GCF= 0.00012 \n+ CGA=1.60E-12 CGK=1.80E-12 CAK=4.50E-13\n.ENDS\n \n**********************************************************************\n* GENERIC: 12AX7 / ECC83\n* MODEL:   NH12AX7\n* NOTES:   No heater model\n**********************************************************************\n.SUBCKT NH12AX7 A G K\nXV1 A G K TRIODENH\n+PARAMS: LIP= 1.5 LIF= 0.000016 RAF= 0.076498 RAS= 1 CDO=-0.53056 \n+ RAP= 0.18 ERP= 1.5 \n+ MU0= 87.302 MUR=-0.013621 EMC= 0.00000111 \n+ GCO=-0.2 GCF= 0.00001 \n+ CGA=3.90E-12 CGK=2.40E-12 CAK=7.00E-13\n.ENDS
TEXT 632 784 Left 0 !.tran 5
TEXT 1040 -1264 Left 0 ;Hammond 125D
TEXT 1984 -1376 Left 0 !.SUBCKT VINT10 A B\nR_RL          A       $N_0002  7.5  \nR_RD1         $N_0002 $N_0003  12.5  \nL_LD1         $N_0003 $N_0002  20mH  \nC_CD1         $N_0002 $N_0003  195u  \nR_RD2         $N_0003 $N_0004  0.5  \nC_CD2         $N_0003 $N_0004  50u  \nL_LD2         $N_0004 $N_0003  100uH  \nL_LD3         B       $N_0004  120uH  \nR_RD3                 B       $N_0004  20\n.ENDS
TEXT 2536 -1416 Left 0 !.SUBCKT trace15 1 2 3 4 5 6\n*\n* Primary\n*\nLleak1  1       20      2mH\nLpri1   20      21      150H\nRpri1   21      2       186\nCpri1   1       2       120p\nLleak2  2       22      2mH\nLpri2   22      23      150H\nRpri2   23      3       201\nCpri2   2       3       120p\n*\n* Secondary\n*\nLleak3  5       24              10uH\nLsec1   24      25      0.6H\nRsec1   25      6       0.8\nLleak4  4           27          10uH\nLsec2             27      28    0.3H\nRsec2             28                5                 0.4\n \nKcoup   Lpri1 LPri2 Lsec1 Lsec2 1.0\n.ENDS
