Version 4
SHEET 1 880 680
WIRE -64 368 -64 352
WIRE -64 464 -64 448
WIRE 96 112 96 96
WIRE 96 208 96 192
WIRE 112 352 -64 352
WIRE 128 96 96 96
WIRE 128 464 128 400
WIRE 160 96 128 96
WIRE 160 304 160 96
FLAG 128 464 0
FLAG 96 208 0
FLAG -64 464 0
FLAG 128 96 ano
SYMBOL voltage 96 96 R0
WINDOW 123 0 0 Left 0
WINDOW 39 0 0 Left 0
SYMATTR InstName V1
SYMATTR Value 40
SYMBOL voltage -64 352 R0
WINDOW 123 0 0 Left 0
WINDOW 39 0 0 Left 0
SYMATTR InstName V2
SYMATTR Value 0
SYMBOL Misc\\triode_dd 160 352 R0
WINDOW 38 8 -36 Left 0
SYMATTR InstName U2
SYMATTR SpiceModel 801a
TEXT -208 328 Left 0 !.dc v1 0 900 1 v2 50 -100 -10
TEXT -208 216 Left 0 ;qvolts=500
TEXT -208 264 Left 0 ;rload=10k
TEXT -208 240 Left 0 ;qcurrent=40m
